data_{}
_symmetry_space_group_name_H-M    P1
_symmetry_Int_Tables_number       1
_symmetry_cell_setting            triclinic
loop_
_symmetry_equiv_pos_as_xyz
'x, y, z'
_cell_length_a     29.661
_cell_length_b     29.796
_cell_length_c     56.634
_cell_angle_alpha  91.845
_cell_angle_beta   91.058
_cell_angle_gamma  90.088
loop_
_atom_site_label
_atom_site_type_symbol
_atom_site_fract_x
_atom_site_fract_y
_atom_site_fract_z
_atom_type_partial_charge
H0 H 0.99881 0.23833 0.04945 0.0
H1 H 0.00464 0.38972 0.04878 0.0
H2 H 0.00897 0.38394 0.97715 0.0
H3 H 0.00314 0.23255 0.97782 0.0
H4 H 0.99828 0.11893 0.01419 0.0
H5 H 0.00950 0.50334 0.01240 0.0
C6 C 0.99861 0.17503 0.03512 0.0
C7 C 0.99990 0.22158 0.03510 0.0
C8 C 0.00661 0.45066 0.03384 0.0
C9 C 0.00577 0.40414 0.03427 0.0
C10 C 0.00917 0.44725 0.99148 0.0
C11 C 0.00836 0.40068 0.99150 0.0
C12 C 0.00117 0.17161 0.99276 0.0
C13 C 0.00201 0.21814 0.99232 0.0
C14 C 0.00330 0.29145 0.01339 0.0
C15 C 0.99990 0.15040 0.01404 0.0
C16 C 0.00119 0.24374 0.01359 0.0
C17 C 0.00448 0.33082 0.01321 0.0
C18 C 0.00857 0.47187 0.01255 0.0
C19 C 0.00659 0.37853 0.01300 0.0
H20 H 0.18931 0.04577 0.54886 0.0
H21 H 0.34135 0.03998 0.54743 0.0
H22 H 0.33639 0.03657 0.47571 0.0
H23 H 0.18435 0.04236 0.47715 0.0
H24 H 0.06981 0.04675 0.51411 0.0
H25 H 0.45589 0.03559 0.51047 0.0
C26 C 0.12590 0.04616 0.53479 0.0
C27 C 0.17266 0.04535 0.53456 0.0
C28 C 0.40273 0.03820 0.53219 0.0
C29 C 0.35600 0.03903 0.53283 0.0
C30 C 0.39980 0.03619 0.48978 0.0
C31 C 0.35303 0.03700 0.49001 0.0
C32 C 0.12296 0.04414 0.49239 0.0
C33 C 0.16970 0.04331 0.49174 0.0
C34 C 0.24308 0.04175 0.51247 0.0
C35 C 0.10141 0.04583 0.51381 0.0
C36 C 0.19517 0.04386 0.51293 0.0
C37 C 0.28262 0.04059 0.51210 0.0
C38 C 0.42428 0.03652 0.51077 0.0
C39 C 0.33053 0.03848 0.51165 0.0
C40 C 0.26991 0.27051 0.78081 0.0
H41 H 0.30330 0.34110 0.80141 0.0
H42 H 0.30891 0.37527 0.78129 0.0
H43 H 0.21197 0.33359 0.76581 0.0
H44 H 0.24243 0.35907 0.74849 0.0
C45 C 0.32204 0.31402 0.75413 0.0
H46 H 0.24437 0.27420 0.79115 0.0
H47 H 0.26161 0.24821 0.76863 0.0
H48 H 0.33055 0.34478 0.75120 0.0
H49 H 0.34584 0.30145 0.76383 0.0
C50 C 0.28821 0.35401 0.78789 0.0
C51 C 0.27873 0.31561 0.76896 0.0
C52 C 0.23642 0.32982 0.75477 0.0
C53 C 0.27743 0.26820 0.25280 0.0
H54 H 0.24329 0.33670 0.23300 0.0
H55 H 0.23861 0.37290 0.25341 0.0
H56 H 0.33608 0.33288 0.26750 0.0
H57 H 0.30643 0.36010 0.28534 0.0
C58 C 0.22656 0.31437 0.28037 0.0
H59 H 0.30251 0.27087 0.24219 0.0
H60 H 0.28621 0.24714 0.26476 0.0
H61 H 0.21823 0.34543 0.28358 0.0
H62 H 0.20233 0.30079 0.27088 0.0
C63 C 0.25897 0.35099 0.24643 0.0
C64 C 0.26919 0.31450 0.26503 0.0
C65 C 0.31212 0.33020 0.27881 0.0
H66 H 0.25395 0.88846 0.76665 0.0
H67 H 0.23524 0.91535 0.78876 0.0
C68 C 0.28720 0.77558 0.80059 0.0
C69 C 0.26073 0.72732 0.83462 0.0
C70 C 0.20379 0.88378 0.82850 0.0
C71 C 0.25885 0.89520 0.78337 0.0
C72 C 0.28483 0.81654 0.78920 0.0
H73 H 0.17660 0.87123 0.83494 0.0
C74 C 0.25810 0.85233 0.79709 0.0
H75 H 0.30187 0.82006 0.77576 0.0
H76 H 0.32439 0.71709 0.80118 0.0
H77 H 0.34296 0.75129 0.78305 0.0
H78 H 0.19518 0.90543 0.81681 0.0
H79 H 0.21770 0.80246 0.84223 0.0
C80 C 0.26147 0.77019 0.82090 0.0
C81 C 0.23237 0.84693 0.81740 0.0
C82 C 0.31578 0.73874 0.78950 0.0
C83 C 0.23474 0.80598 0.82879 0.0
H84 H 0.26562 0.73405 0.85134 0.0
H85 H 0.28433 0.70717 0.82924 0.0
H86 H 0.84787 0.36641 0.29118 0.0
H87 H 0.87417 0.33937 0.31048 0.0
C88 C 0.73224 0.29457 0.29200 0.0
C89 C 0.68262 0.25182 0.32061 0.0
C90 C 0.84114 0.28970 0.34414 0.0
C91 C 0.85375 0.33664 0.29692 0.0
C92 C 0.77397 0.31438 0.28764 0.0
H93 H 0.82873 0.29246 0.35986 0.0
C94 C 0.81004 0.31454 0.30385 0.0
H95 H 0.77783 0.32804 0.27328 0.0
H96 H 0.67276 0.27541 0.27500 0.0
H97 H 0.70764 0.29599 0.25768 0.0
H98 H 0.86361 0.31304 0.34254 0.0
H99 H 0.75853 0.26041 0.34426 0.0
C100 C 0.72633 0.27391 0.31369 0.0
C101 C 0.80412 0.29389 0.32554 0.0
C102 C 0.69522 0.29875 0.27340 0.0
C103 C 0.76240 0.27408 0.32990 0.0
H104 H 0.68850 0.22204 0.32636 0.0
H105 H 0.66219 0.24908 0.30706 0.0
H106 H 0.18246 0.89061 0.20432 0.0
H107 H 0.20925 0.91744 0.22448 0.0
C108 C 0.25457 0.77589 0.20743 0.0
C109 C 0.29696 0.72746 0.23740 0.0
C110 C 0.25849 0.88569 0.25973 0.0
C111 C 0.21224 0.89676 0.21101 0.0
C112 C 0.23475 0.81722 0.20244 0.0
H113 H 0.25544 0.87373 0.27536 0.0
C114 C 0.23430 0.85355 0.21864 0.0
H115 H 0.22130 0.82062 0.18764 0.0
H116 H 0.27411 0.71633 0.19103 0.0
H117 H 0.25376 0.75050 0.17306 0.0
H118 H 0.23509 0.90789 0.25738 0.0
H119 H 0.28790 0.80361 0.26077 0.0
C120 C 0.27490 0.77068 0.22978 0.0
C121 C 0.25463 0.84833 0.24099 0.0
C122 C 0.25071 0.73854 0.18869 0.0
C123 C 0.27445 0.80701 0.24598 0.0
H124 H 0.32674 0.73362 0.24410 0.0
H125 H 0.29995 0.70679 0.22394 0.0
H126 H 0.69296 0.22174 0.70413 0.0
H127 H 0.66783 0.24875 0.72428 0.0
C128 C 0.80856 0.29386 0.70761 0.0
C129 C 0.85991 0.33678 0.73776 0.0
C130 C 0.70291 0.29856 0.75968 0.0
C131 C 0.68740 0.25151 0.71086 0.0
C132 C 0.76658 0.27394 0.70249 0.0
H133 H 0.71631 0.29586 0.77533 0.0
C134 C 0.73152 0.27372 0.71862 0.0
H135 H 0.76183 0.26023 0.68767 0.0
H136 H 0.86695 0.31312 0.69138 0.0
H137 H 0.83101 0.29242 0.67329 0.0
H138 H 0.68037 0.27517 0.75725 0.0
H139 H 0.78549 0.32805 0.76095 0.0
C140 C 0.81580 0.31457 0.73000 0.0
C141 C 0.73877 0.29443 0.74102 0.0
C142 C 0.84441 0.28972 0.68895 0.0
C143 C 0.78074 0.31435 0.74613 0.0
H144 H 0.85436 0.36655 0.74449 0.0
H145 H 0.87949 0.33954 0.72435 0.0
C146 C 0.25932 0.52812 0.79107 0.0
C147 C 0.27293 0.57637 0.79632 0.0
H148 H 0.24804 0.51431 0.80488 0.0
H149 H 0.23524 0.52690 0.77957 0.0
H150 H 0.29624 0.57622 0.80725 0.0
H151 H 0.24892 0.59420 0.80142 0.0
C152 C 0.06491 0.31821 0.27599 0.0
C153 C 0.01559 0.30544 0.27453 0.0
H154 H 0.08127 0.30500 0.26303 0.0
H155 H 0.06815 0.35005 0.27487 0.0
H156 H 0.01377 0.27482 0.27584 0.0
H157 H 0.00123 0.31515 0.26080 0.0
C158 C 0.29159 0.52224 0.23969 0.0
C159 C 0.27718 0.57079 0.23875 0.0
H160 H 0.28586 0.50649 0.22487 0.0
H161 H 0.32344 0.52053 0.24259 0.0
H162 H 0.24650 0.57112 0.23613 0.0
H163 H 0.29259 0.58662 0.22743 0.0
C164 C 0.48739 0.29385 0.74153 0.0
C165 C 0.53542 0.30739 0.73680 0.0
H166 H 0.47222 0.28294 0.72734 0.0
H167 H 0.48711 0.26964 0.75225 0.0
H168 H 0.53437 0.33082 0.72663 0.0
H169 H 0.55280 0.28354 0.73097 0.0
C170 C 0.30048 0.10164 0.79379 0.0
C171 C 0.28714 0.05298 0.79586 0.0
H172 H 0.30016 0.11734 0.80888 0.0
H173 H 0.33076 0.10362 0.78832 0.0
H174 H 0.25791 0.05238 0.80096 0.0
H175 H 0.30667 0.03727 0.80572 0.0
C176 C 0.07178 0.30911 0.75693 0.0
C177 C 0.02417 0.32477 0.76140 0.0
H178 H 0.08988 0.31046 0.77119 0.0
H179 H 0.07157 0.27830 0.75157 0.0
H180 H 0.02565 0.35444 0.76633 0.0
H181 H 0.00925 0.30718 0.77216 0.0
C182 C 0.29119 0.09869 0.24988 0.0
C183 C 0.28659 0.05110 0.25800 0.0
H184 H 0.30728 0.11725 0.26140 0.0
H185 H 0.30842 0.09903 0.23576 0.0
H186 H 0.26964 0.05203 0.27144 0.0
H187 H 0.31439 0.03716 0.26041 0.0
C188 C 0.47852 0.33796 0.28103 0.0
C189 C 0.52768 0.34288 0.28815 0.0
H190 H 0.46230 0.36543 0.28392 0.0
H191 H 0.47578 0.33140 0.26440 0.0
H192 H 0.52902 0.34880 0.30418 0.0
H193 H 0.54251 0.36476 0.27975 0.0
C194 C 0.99990 0.45589 0.98427 0.0
C195 C 0.02533 0.48609 0.96761 0.0
C196 C 0.05130 0.51630 0.95096 0.0
C197 C 0.10304 0.51326 0.94981 0.0
C198 C 0.12898 0.54347 0.93315 0.0
C199 C 0.10318 0.57671 0.91765 0.0
C200 C 0.05143 0.57975 0.91880 0.0
C201 C 0.02550 0.54955 0.93546 0.0
C202 C 0.12913 0.60689 0.90098 0.0
C203 C 0.10334 0.64011 0.88546 0.0
C204 C 0.12931 0.67029 0.86880 0.0
C205 C 0.18106 0.66726 0.86767 0.0
C206 C 0.20685 0.63403 0.88319 0.0
C207 C 0.18088 0.60386 0.89985 0.0
C208 C 0.20704 0.69743 0.85101 0.0
C209 C 0.23308 0.72760 0.83436 0.0
H210 H 0.12215 0.48866 0.96129 0.0
H211 H 0.16728 0.54122 0.93229 0.0
H212 H 0.03233 0.60435 0.90732 0.0
H213 H 0.98720 0.55180 0.93633 0.0
H214 H 0.06504 0.64238 0.88630 0.0
H215 H 0.11023 0.69487 0.85730 0.0
H216 H 0.24516 0.63178 0.88234 0.0
H217 H 0.19996 0.57927 0.91135 0.0
C218 C 0.12182 0.03595 0.48351 0.0
C219 C 0.09104 0.06203 0.46661 0.0
C220 C 0.06025 0.08811 0.44971 0.0
C221 C 0.00951 0.07721 0.44787 0.0
C222 C 0.97876 0.10332 0.43096 0.0
C223 C 0.99873 0.14031 0.41590 0.0
C224 C 0.04947 0.15121 0.41774 0.0
C225 C 0.08022 0.12511 0.43464 0.0
C226 C 0.96794 0.16643 0.39902 0.0
C227 C 0.98790 0.20345 0.38396 0.0
C228 C 0.95710 0.22955 0.36708 0.0
C229 C 0.90637 0.21861 0.36523 0.0
C230 C 0.88642 0.18158 0.38029 0.0
C231 C 0.91721 0.15549 0.39717 0.0
C232 C 0.87557 0.24470 0.34834 0.0
C233 C 0.84471 0.27074 0.33146 0.0
H234 H 0.99473 0.04982 0.45901 0.0
H235 H 0.94120 0.09526 0.42961 0.0
H236 H 0.06425 0.17861 0.40659 0.0
H237 H 0.11779 0.13315 0.43599 0.0
H238 H 0.02545 0.21154 0.38531 0.0
H239 H 0.97186 0.25698 0.35594 0.0
H240 H 0.84886 0.17349 0.37893 0.0
H241 H 0.90246 0.12807 0.40832 0.0
C242 C 0.99831 0.45179 0.04252 0.0
C243 C 0.02422 0.48330 0.06009 0.0
C244 C 0.05012 0.51481 0.07766 0.0
C245 C 0.02458 0.54112 0.09706 0.0
C246 C 0.05052 0.57261 0.11462 0.0
C247 C 0.10198 0.57780 0.11280 0.0
C248 C 0.12753 0.55150 0.09340 0.0
C249 C 0.10159 0.52002 0.07584 0.0
C250 C 0.12790 0.60927 0.13038 0.0
C251 C 0.17937 0.61446 0.12857 0.0
C252 C 0.20528 0.64594 0.14616 0.0
C253 C 0.17971 0.67226 0.16554 0.0
C254 C 0.12823 0.66708 0.16735 0.0
C255 C 0.10234 0.63560 0.14976 0.0
C256 C 0.20561 0.70375 0.18312 0.0
C257 C 0.23144 0.73527 0.20072 0.0
H258 H 0.98648 0.53728 0.09841 0.0
H259 H 0.03162 0.59207 0.12898 0.0
H260 H 0.16563 0.55534 0.09205 0.0
H261 H 0.12049 0.50056 0.06147 0.0
H262 H 0.19831 0.59499 0.11422 0.0
H263 H 0.24339 0.64977 0.14483 0.0
H264 H 0.10931 0.68655 0.18170 0.0
H265 H 0.06423 0.63176 0.15109 0.0
C266 C 0.40334 0.03569 0.54073 0.0
C267 C 0.43496 0.06152 0.55826 0.0
C268 C 0.46659 0.08735 0.57579 0.0
C269 C 0.51215 0.06683 0.58314 0.0
C270 C 0.54375 0.09268 0.60067 0.0
C271 C 0.52980 0.13904 0.61084 0.0
C272 C 0.48423 0.15956 0.60350 0.0
C273 C 0.45263 0.13370 0.58598 0.0
C274 C 0.56143 0.16490 0.62836 0.0
C275 C 0.54750 0.21127 0.63853 0.0
C276 C 0.57915 0.23711 0.65604 0.0
C277 C 0.62469 0.21655 0.66340 0.0
C278 C 0.63862 0.17017 0.65323 0.0
C279 C 0.60698 0.14434 0.63571 0.0
C280 C 0.65634 0.24238 0.68091 0.0
C281 C 0.68803 0.26815 0.69844 0.0
H282 H 0.52248 0.03250 0.57561 0.0
H283 H 0.57749 0.07750 0.60611 0.0
H284 H 0.47390 0.19388 0.61103 0.0
H285 H 0.41889 0.14887 0.58054 0.0
H286 H 0.51378 0.22649 0.63309 0.0
H287 H 0.56886 0.27145 0.66356 0.0
H288 H 0.67235 0.15497 0.65867 0.0
H289 H 0.61727 0.11000 0.62819 0.0
C290 C 0.99990 0.17042 0.98392 0.0
C291 C 0.02540 0.13904 0.96703 0.0
C292 C 0.05174 0.10766 0.95014 0.0
C293 C 0.02640 0.07250 0.93438 0.0
C294 C 0.05276 0.04114 0.91749 0.0
C295 C 0.10445 0.04492 0.91637 0.0
C296 C 0.12979 0.08008 0.93213 0.0
C297 C 0.10343 0.11143 0.94902 0.0
C298 C 0.13078 0.01357 0.89946 0.0
C299 C 0.18247 0.01737 0.89832 0.0
C300 C 0.20880 0.98601 0.88142 0.0
C301 C 0.18344 0.95083 0.86567 0.0
C302 C 0.13174 0.94703 0.86682 0.0
C303 C 0.10542 0.97840 0.88372 0.0
C304 C 0.20975 0.91946 0.84877 0.0
C305 C 0.23601 0.88805 0.83186 0.0
H306 H 0.98813 0.06969 0.93522 0.0
H307 H 0.03400 0.01512 0.90582 0.0
H308 H 0.16806 0.08289 0.93130 0.0
H309 H 0.12219 0.13744 0.96070 0.0
H310 H 0.20126 0.04339 0.90998 0.0
H311 H 0.24706 0.98882 0.88056 0.0
H312 H 0.11297 0.92101 0.85516 0.0
H313 H 0.06716 0.97559 0.88458 0.0
C314 C 0.11708 0.03613 0.54165 0.0
C315 C 0.08729 0.06217 0.55934 0.0
C316 C 0.05749 0.08820 0.57704 0.0
C317 C 0.07935 0.11902 0.59639 0.0
C318 C 0.04953 0.14505 0.61407 0.0
C319 C 0.99786 0.14026 0.61240 0.0
C320 C 0.97600 0.10944 0.59305 0.0
C321 C 0.00582 0.08342 0.57538 0.0
C322 C 0.96806 0.16633 0.63008 0.0
C323 C 0.91638 0.16157 0.62841 0.0
C324 C 0.88659 0.18764 0.64610 0.0
C325 C 0.90848 0.21842 0.66546 0.0
C326 C 0.96016 0.22317 0.66713 0.0
C327 C 0.98994 0.19711 0.64944 0.0
C328 C 0.87870 0.24449 0.68315 0.0
C329 C 0.84897 0.27057 0.70086 0.0
H330 H 0.11760 0.12255 0.59763 0.0
H331 H 0.06570 0.16786 0.62839 0.0
H332 H 0.93775 0.10591 0.59182 0.0
H333 H 0.98965 0.06059 0.56106 0.0
H334 H 0.90017 0.13878 0.61409 0.0
H335 H 0.84834 0.18415 0.64486 0.0
H336 H 0.97636 0.24597 0.68145 0.0
H337 H 0.02820 0.20061 0.65068 0.0
C338 C 0.99866 0.16637 0.04220 0.0
C339 C 0.02422 0.13630 0.05953 0.0
C340 C 0.04979 0.10623 0.07685 0.0
C341 C 0.03425 0.10338 0.10256 0.0
C342 C 0.05982 0.07330 0.11987 0.0
C343 C 0.10094 0.04607 0.11148 0.0
C344 C 0.11649 0.04892 0.08577 0.0
C345 C 0.09092 0.07901 0.06847 0.0
C346 C 0.12648 0.01597 0.12880 0.0
C347 C 0.16759 0.98871 0.12041 0.0
C348 C 0.19312 0.95862 0.13774 0.0
C349 C 0.17758 0.95582 0.16344 0.0
C350 C 0.13648 0.98308 0.17183 0.0
C351 C 0.11094 0.01317 0.15451 0.0
C352 C 0.20312 0.92573 0.18077 0.0
C353 C 0.22862 0.89568 0.19813 0.0
H354 H 0.00381 0.12355 0.10877 0.0
H355 H 0.04831 0.07119 0.13889 0.0
H356 H 0.14692 0.02876 0.07956 0.0
H357 H 0.10243 0.08114 0.04944 0.0
H358 H 0.17912 0.99080 0.10139 0.0
H359 H 0.22354 0.93841 0.13153 0.0
H360 H 0.12496 0.98099 0.19086 0.0
H361 H 0.08052 0.03336 0.16071 0.0
C362 C 0.40820 0.03598 0.48285 0.0
C363 C 0.43882 0.06177 0.46628 0.0
C364 C 0.46944 0.08755 0.44971 0.0
C365 C 0.45263 0.13120 0.43870 0.0
C366 C 0.48328 0.15697 0.42213 0.0
C367 C 0.53072 0.13910 0.41658 0.0
C368 C 0.54754 0.09545 0.42759 0.0
C369 C 0.51689 0.06968 0.44415 0.0
C370 C 0.56137 0.16490 0.40003 0.0
C371 C 0.60883 0.14706 0.39448 0.0
C372 C 0.63946 0.17287 0.37793 0.0
C373 C 0.62261 0.21650 0.36691 0.0
C374 C 0.57514 0.23435 0.37245 0.0
C375 C 0.54452 0.20853 0.38901 0.0
C376 C 0.65323 0.24232 0.35035 0.0
C377 C 0.68379 0.26817 0.33378 0.0
H378 H 0.41750 0.14443 0.44280 0.0
H379 H 0.47084 0.18928 0.41399 0.0
H380 H 0.58266 0.08222 0.42348 0.0
H381 H 0.52931 0.03735 0.45229 0.0
H382 H 0.62130 0.11475 0.40263 0.0
H383 H 0.67461 0.15969 0.37383 0.0
H384 H 0.56268 0.26665 0.36430 0.0
H385 H 0.50937 0.22173 0.39312 0.0
