data_{}
_symmetry_space_group_name_H-M    P1
_symmetry_Int_Tables_number       1
_symmetry_cell_setting            triclinic
loop_
_symmetry_equiv_pos_as_xyz
'x, y, z'
_cell_length_a     74.867
_cell_length_b     74.700
_cell_length_c     36.300
_cell_angle_alpha  90.138
_cell_angle_beta   90.137
_cell_angle_gamma  92.834
loop_
_atom_site_label
_atom_site_type_symbol
_atom_site_fract_x
_atom_site_fract_y
_atom_site_fract_z
_atom_type_partial_charge
H0 H 0.02173 0.49419 0.97731 0.0
C1 C 0.01465 0.51032 0.02153 0.0
C2 C 0.01622 0.50592 0.97981 0.0
H3 H 0.01178 0.52301 0.02473 0.0
C4 C 0.99530 0.50260 0.97926 0.0
C5 C 0.99692 0.49812 0.02107 0.0
H6 H 0.98945 0.51409 0.97609 0.0
H7 H 0.00010 0.48545 0.02362 0.0
H8 H 0.51579 0.02084 0.97741 0.0
C9 C 0.49970 0.01217 0.02146 0.0
C10 C 0.50408 0.01418 0.97979 0.0
H11 H 0.48703 0.00805 0.02454 0.0
C12 C 0.50738 0.99353 0.97927 0.0
C13 C 0.51185 0.99559 0.02113 0.0
H14 H 0.49591 0.98654 0.97599 0.0
H15 H 0.52450 0.99990 0.02381 0.0
Cd16 Cd 0.50595 0.50406 0.50054 0.0
H17 H 0.56964 0.49388 0.55814 0.0
H18 H 0.53999 0.50061 0.55529 0.0
H19 H 0.53956 0.49518 0.44812 0.0
H20 H 0.56859 0.48726 0.44750 0.0
H21 H 0.51631 0.43808 0.54006 0.0
H22 H 0.51984 0.46909 0.53715 0.0
H23 H 0.47732 0.47156 0.47434 0.0
H24 H 0.47283 0.44021 0.47484 0.0
H25 H 0.44225 0.51424 0.44294 0.0
H26 H 0.47191 0.50751 0.44579 0.0
H27 H 0.47234 0.51294 0.55297 0.0
H28 H 0.44330 0.52086 0.55359 0.0
H29 H 0.49559 0.57004 0.46102 0.0
H30 H 0.49205 0.53902 0.46393 0.0
H31 H 0.53458 0.53656 0.52674 0.0
H32 H 0.53907 0.56791 0.52624 0.0
C33 C 0.56371 0.49391 0.53499 0.0
C34 C 0.54594 0.49796 0.53298 0.0
C35 C 0.54569 0.49464 0.47099 0.0
C36 C 0.56315 0.49016 0.47021 0.0
C37 C 0.57297 0.48985 0.50276 0.0
C38 C 0.49430 0.43576 0.50761 0.0
C39 C 0.50814 0.44462 0.52603 0.0
C40 C 0.51021 0.46319 0.52413 0.0
C41 C 0.48551 0.46463 0.48745 0.0
C42 C 0.48261 0.44583 0.48786 0.0
C43 C 0.44818 0.51421 0.46610 0.0
C44 C 0.46596 0.51016 0.46811 0.0
C45 C 0.46620 0.51348 0.53010 0.0
C46 C 0.44874 0.51795 0.53088 0.0
C47 C 0.43893 0.51827 0.49833 0.0
C48 C 0.51760 0.57236 0.49347 0.0
C49 C 0.50376 0.56349 0.47505 0.0
C50 C 0.50169 0.54493 0.47696 0.0
C51 C 0.52638 0.54349 0.51363 0.0
C52 C 0.52928 0.56229 0.51323 0.0
N53 N 0.53655 0.49835 0.50152 0.0
N54 N 0.49913 0.47311 0.50452 0.0
N55 N 0.47535 0.50977 0.49956 0.0
N56 N 0.51276 0.53501 0.49657 0.0
O57 O 0.50683 0.50567 0.56445 0.0
O58 O 0.50506 0.50245 0.43664 0.0
C59 C 0.13070 0.58293 0.25678 0.0
C60 C 0.13356 0.56602 0.27984 0.0
C61 C 0.14627 0.56711 0.31326 0.0
C62 C 0.14931 0.55030 0.33654 0.0
C63 C 0.16210 0.55152 0.36986 0.0
C64 C 0.17182 0.56953 0.37977 0.0
C65 C 0.16873 0.58633 0.35659 0.0
C66 C 0.15597 0.58511 0.32331 0.0
C67 C 0.18357 0.55406 0.43545 0.0
C68 C 0.19505 0.55949 0.46908 0.0
C69 C 0.21543 0.55791 0.46771 0.0
C70 C 0.22712 0.56657 0.49844 0.0
C71 C 0.21837 0.57478 0.53249 0.0
C72 C 0.19786 0.57478 0.53532 0.0
C73 C 0.18619 0.56714 0.50353 0.0
C74 C 0.16574 0.56848 0.50491 0.0
C75 C 0.22414 0.54907 0.43426 0.0
C76 C 0.23018 0.58355 0.56298 0.0
C77 C 0.24758 0.56727 0.49506 0.0
C78 C 0.27303 0.58889 0.48605 0.0
C79 C 0.28452 0.57264 0.49222 0.0
C80 C 0.30502 0.57528 0.49431 0.0
C81 C 0.31398 0.59417 0.49023 0.0
C82 C 0.30248 0.61040 0.48374 0.0
C83 C 0.28199 0.60776 0.48166 0.0
C84 C 0.33447 0.59676 0.49270 0.0
C85 C 0.34587 0.58047 0.49935 0.0
C86 C 0.18898 0.58330 0.56879 0.0
C87 C 0.17742 0.57553 0.63015 0.0
C88 C 0.17220 0.59517 0.63270 0.0
C89 C 0.15931 0.60087 0.66305 0.0
C90 C 0.15166 0.58690 0.69067 0.0
C91 C 0.15693 0.56728 0.68813 0.0
C92 C 0.16983 0.56159 0.65784 0.0
C93 C 0.13864 0.59248 0.72083 0.0
C94 C 0.13095 0.57837 0.74810 0.0
O95 O 0.18419 0.57090 0.41255 0.0
O96 O 0.18931 0.56974 0.59940 0.0
O97 O 0.25296 0.58638 0.48522 0.0
H98 H 0.13799 0.59617 0.26454 0.0
H99 H 0.12630 0.55275 0.27218 0.0
H100 H 0.14212 0.53698 0.32910 0.0
H101 H 0.16436 0.53911 0.38718 0.0
H102 H 0.17589 0.59966 0.36409 0.0
H103 H 0.15369 0.59753 0.30608 0.0
H104 H 0.18952 0.54254 0.41976 0.0
H105 H 0.16927 0.55033 0.44433 0.0
H106 H 0.16213 0.57755 0.52877 0.0
H107 H 0.15907 0.55457 0.50898 0.0
H108 H 0.16094 0.57438 0.47791 0.0
H109 H 0.21456 0.54903 0.40978 0.0
H110 H 0.22711 0.53467 0.44150 0.0
H111 H 0.23715 0.55677 0.42684 0.0
H112 H 0.22135 0.58968 0.58472 0.0
H113 H 0.23936 0.59449 0.55030 0.0
H114 H 0.23862 0.57302 0.57626 0.0
H115 H 0.25380 0.56362 0.52255 0.0
H116 H 0.25191 0.55776 0.47253 0.0
H117 H 0.27785 0.55868 0.49540 0.0
H118 H 0.31355 0.56327 0.49897 0.0
H119 H 0.30913 0.62437 0.48058 0.0
H120 H 0.27343 0.61977 0.47701 0.0
H121 H 0.34119 0.61071 0.48966 0.0
H122 H 0.33911 0.56653 0.50236 0.0
H123 H 0.19650 0.59629 0.57742 0.0
H124 H 0.17453 0.58607 0.56162 0.0
H125 H 0.17777 0.60543 0.61200 0.0
H126 H 0.15539 0.61539 0.66498 0.0
H127 H 0.15123 0.55697 0.70862 0.0
H128 H 0.17366 0.54705 0.65575 0.0
H129 H 0.13468 0.60699 0.72295 0.0
H130 H 0.13493 0.56388 0.74587 0.0
C131 C 0.42740 0.12136 0.25597 0.0
C132 C 0.44427 0.12590 0.27920 0.0
C133 C 0.44318 0.13853 0.31260 0.0
C134 C 0.45995 0.14324 0.33605 0.0
C135 C 0.45874 0.15594 0.36937 0.0
C136 C 0.44077 0.16390 0.37909 0.0
C137 C 0.42401 0.15914 0.35573 0.0
C138 C 0.42522 0.14647 0.32247 0.0
C139 C 0.45620 0.17720 0.43493 0.0
C140 C 0.45079 0.18818 0.46851 0.0
C141 C 0.45236 0.20875 0.46716 0.0
C142 C 0.44372 0.21962 0.49779 0.0
C143 C 0.43553 0.21004 0.53176 0.0
C144 C 0.43553 0.18948 0.53459 0.0
C145 C 0.44315 0.17854 0.50288 0.0
C146 C 0.44181 0.15792 0.50424 0.0
C147 C 0.46118 0.21836 0.43380 0.0
C148 C 0.42678 0.22101 0.56216 0.0
C149 C 0.44302 0.24005 0.49440 0.0
C150 C 0.42145 0.26343 0.48517 0.0
C151 C 0.43766 0.27655 0.49151 0.0
C152 C 0.43503 0.29683 0.49357 0.0
C153 C 0.41619 0.30395 0.48929 0.0
C154 C 0.39999 0.29082 0.48264 0.0
C155 C 0.40262 0.27053 0.48058 0.0
C156 C 0.41360 0.32422 0.49174 0.0
C157 C 0.42986 0.33726 0.49856 0.0
C158 C 0.42702 0.17973 0.56796 0.0
C159 C 0.43478 0.16892 0.62941 0.0
C160 C 0.41519 0.16174 0.63175 0.0
C161 C 0.40950 0.14827 0.66204 0.0
C162 C 0.42343 0.14198 0.68981 0.0
C163 C 0.44301 0.14920 0.68748 0.0
C164 C 0.44869 0.16269 0.65724 0.0
C165 C 0.41787 0.12838 0.71992 0.0
C166 C 0.43194 0.12206 0.74732 0.0
O167 O 0.43940 0.17616 0.41185 0.0
O168 O 0.44055 0.18141 0.59872 0.0
O169 O 0.42395 0.24355 0.48437 0.0
H170 H 0.41418 0.12736 0.26359 0.0
H171 H 0.45751 0.11994 0.27167 0.0
H172 H 0.47325 0.13736 0.32876 0.0
H173 H 0.47111 0.15943 0.38681 0.0
H174 H 0.41071 0.16501 0.36310 0.0
H175 H 0.41283 0.14296 0.30511 0.0
H176 H 0.46769 0.18431 0.41936 0.0
H177 H 0.45993 0.16324 0.44385 0.0
H178 H 0.43276 0.15339 0.52801 0.0
H179 H 0.45569 0.15260 0.50845 0.0
H180 H 0.43593 0.15252 0.47718 0.0
H181 H 0.46122 0.20877 0.40931 0.0
H182 H 0.47555 0.22276 0.44118 0.0
H183 H 0.45350 0.23064 0.42629 0.0
H184 H 0.42066 0.21155 0.58383 0.0
H185 H 0.41586 0.22913 0.54937 0.0
H186 H 0.43728 0.23051 0.57555 0.0
H187 H 0.44667 0.24665 0.52194 0.0
H188 H 0.45251 0.24533 0.47197 0.0
H189 H 0.45160 0.27124 0.49484 0.0
H190 H 0.44702 0.30657 0.49836 0.0
H191 H 0.38605 0.29610 0.47933 0.0
H192 H 0.39064 0.26077 0.47582 0.0
H193 H 0.39968 0.32958 0.48856 0.0
H194 H 0.44376 0.33186 0.50172 0.0
H195 H 0.41407 0.18599 0.57647 0.0
H196 H 0.42426 0.16498 0.56077 0.0
H197 H 0.40495 0.16631 0.61095 0.0
H198 H 0.39501 0.14290 0.66383 0.0
H199 H 0.45330 0.14451 0.70807 0.0
H200 H 0.46319 0.16797 0.65531 0.0
H201 H 0.40339 0.12298 0.72188 0.0
H202 H 0.44641 0.12749 0.74525 0.0
C203 C 0.88128 0.42655 0.74436 0.0
C204 C 0.87676 0.40965 0.72112 0.0
C205 C 0.86415 0.41073 0.68772 0.0
C206 C 0.85945 0.39393 0.66427 0.0
C207 C 0.84678 0.39515 0.63095 0.0
C208 C 0.83884 0.41315 0.62124 0.0
C209 C 0.84359 0.42995 0.64459 0.0
C210 C 0.85623 0.42873 0.67786 0.0
C211 C 0.82556 0.39769 0.56540 0.0
C212 C 0.81461 0.40311 0.53183 0.0
C213 C 0.79408 0.40154 0.53318 0.0
C214 C 0.78324 0.41019 0.50254 0.0
C215 C 0.79280 0.41841 0.46858 0.0
C216 C 0.81331 0.41840 0.46574 0.0
C217 C 0.82423 0.41077 0.49745 0.0
C218 C 0.84481 0.41211 0.49609 0.0
C219 C 0.78450 0.39270 0.56654 0.0
C220 C 0.78185 0.42718 0.43818 0.0
C221 C 0.76286 0.41090 0.50594 0.0
C222 C 0.73953 0.43252 0.51518 0.0
C223 C 0.72644 0.41627 0.50884 0.0
C224 C 0.70620 0.41891 0.50678 0.0
C225 C 0.69910 0.43779 0.51106 0.0
C226 C 0.71221 0.45403 0.51771 0.0
C227 C 0.73244 0.45139 0.51977 0.0
C228 C 0.67887 0.44039 0.50862 0.0
C229 C 0.66587 0.42409 0.50180 0.0
C230 C 0.82303 0.42693 0.43237 0.0
C231 C 0.83383 0.41916 0.37092 0.0
C232 C 0.84098 0.43879 0.36857 0.0
C233 C 0.85443 0.44449 0.33828 0.0
C234 C 0.86070 0.43053 0.31051 0.0
C235 C 0.85349 0.41091 0.31285 0.0
C236 C 0.84004 0.40522 0.34308 0.0
C237 C 0.87427 0.43611 0.28041 0.0
C238 C 0.88057 0.42200 0.25300 0.0
O239 O 0.82660 0.41453 0.58848 0.0
O240 O 0.82136 0.41337 0.40161 0.0
O241 O 0.75936 0.43001 0.51598 0.0
H242 H 0.87531 0.43980 0.73674 0.0
H243 H 0.88271 0.39638 0.72865 0.0
H244 H 0.86532 0.38060 0.67156 0.0
H245 H 0.84330 0.38274 0.61352 0.0
H246 H 0.83774 0.44328 0.63723 0.0
H247 H 0.85973 0.44115 0.69521 0.0
H248 H 0.81847 0.38617 0.58097 0.0
H249 H 0.83949 0.39395 0.55648 0.0
H250 H 0.84932 0.42118 0.47232 0.0
H251 H 0.85011 0.39820 0.49187 0.0
H252 H 0.85019 0.41800 0.52315 0.0
H253 H 0.79407 0.39266 0.59102 0.0
H254 H 0.78010 0.37829 0.55915 0.0
H255 H 0.77225 0.40039 0.57405 0.0
H256 H 0.79129 0.43331 0.41650 0.0
H257 H 0.77375 0.43812 0.45097 0.0
H258 H 0.77237 0.41665 0.42479 0.0
H259 H 0.75627 0.40724 0.47841 0.0
H260 H 0.75759 0.40139 0.52837 0.0
H261 H 0.73174 0.40230 0.50551 0.0
H262 H 0.69648 0.40690 0.50200 0.0
H263 H 0.70693 0.46800 0.52102 0.0
H264 H 0.74218 0.46340 0.52453 0.0
H265 H 0.67353 0.45434 0.51180 0.0
H266 H 0.67125 0.41016 0.49864 0.0
H267 H 0.81679 0.43991 0.42386 0.0
H268 H 0.83775 0.42970 0.43956 0.0
H269 H 0.83642 0.44905 0.38938 0.0
H270 H 0.85978 0.45902 0.33650 0.0
H271 H 0.85817 0.40060 0.29225 0.0
H272 H 0.83477 0.39068 0.34502 0.0
H273 H 0.87966 0.45061 0.27844 0.0
H274 H 0.87515 0.40750 0.25507 0.0
C275 C 0.58313 0.88668 0.74516 0.0
C276 C 0.60000 0.88382 0.72210 0.0
C277 C 0.59891 0.87108 0.68869 0.0
C278 C 0.61568 0.86802 0.66541 0.0
C279 C 0.61446 0.85521 0.63208 0.0
C280 C 0.59650 0.84546 0.62218 0.0
C281 C 0.57974 0.84856 0.64536 0.0
C282 C 0.58095 0.86136 0.67864 0.0
C283 C 0.61193 0.83369 0.56650 0.0
C284 C 0.60652 0.82218 0.53287 0.0
C285 C 0.60809 0.80176 0.53424 0.0
C286 C 0.59945 0.79003 0.50352 0.0
C287 C 0.59126 0.79880 0.46946 0.0
C288 C 0.59126 0.81936 0.46663 0.0
C289 C 0.59888 0.83106 0.49842 0.0
C290 C 0.59754 0.85155 0.49704 0.0
C291 C 0.61691 0.79303 0.56770 0.0
C292 C 0.58251 0.78696 0.43898 0.0
C293 C 0.59875 0.76953 0.50691 0.0
C294 C 0.57718 0.74402 0.51592 0.0
C295 C 0.59339 0.73251 0.50975 0.0
C296 C 0.59076 0.71196 0.50766 0.0
C297 C 0.57192 0.70298 0.51175 0.0
C298 C 0.55572 0.71450 0.51823 0.0
C299 C 0.55835 0.73505 0.52031 0.0
C300 C 0.56933 0.68244 0.50928 0.0
C301 C 0.58559 0.67102 0.50263 0.0
C302 C 0.58275 0.82826 0.43317 0.0
C303 C 0.59051 0.83985 0.37180 0.0
C304 C 0.57092 0.84508 0.36925 0.0
C305 C 0.56523 0.85799 0.33890 0.0
C306 C 0.57916 0.86566 0.31128 0.0
C307 C 0.59874 0.86037 0.31382 0.0
C308 C 0.60442 0.84745 0.34411 0.0
C309 C 0.57360 0.87870 0.28111 0.0
C310 C 0.58767 0.88641 0.25385 0.0
O311 O 0.59513 0.83306 0.58941 0.0
O312 O 0.59628 0.82793 0.40255 0.0
O313 O 0.57968 0.76414 0.51674 0.0
H314 H 0.56991 0.87938 0.73740 0.0
H315 H 0.61324 0.89109 0.72977 0.0
H316 H 0.62898 0.87523 0.67284 0.0
H317 H 0.62684 0.85294 0.61477 0.0
H318 H 0.56644 0.84138 0.63786 0.0
H319 H 0.56856 0.86364 0.69587 0.0
H320 H 0.62342 0.82772 0.58219 0.0
H321 H 0.61566 0.84802 0.55762 0.0
H322 H 0.58849 0.85517 0.47318 0.0
H323 H 0.61142 0.85824 0.49297 0.0
H324 H 0.59166 0.85636 0.52404 0.0
H325 H 0.61695 0.80262 0.59218 0.0
H326 H 0.63128 0.79005 0.56046 0.0
H327 H 0.60923 0.77999 0.57512 0.0
H328 H 0.57639 0.79581 0.41724 0.0
H329 H 0.57159 0.77776 0.45166 0.0
H330 H 0.59301 0.77850 0.42570 0.0
H331 H 0.60240 0.76329 0.47941 0.0
H332 H 0.60824 0.76519 0.52943 0.0
H333 H 0.60733 0.73920 0.50656 0.0
H334 H 0.60275 0.70341 0.50300 0.0
H335 H 0.54178 0.70784 0.52139 0.0
H336 H 0.54637 0.74362 0.52495 0.0
H337 H 0.55541 0.67571 0.51231 0.0
H338 H 0.59949 0.67780 0.49961 0.0
H339 H 0.56980 0.82072 0.42453 0.0
H340 H 0.57999 0.84274 0.44033 0.0
H341 H 0.56068 0.83949 0.38995 0.0
H342 H 0.55074 0.86192 0.33697 0.0
H343 H 0.60903 0.86608 0.29333 0.0
H344 H 0.61892 0.84361 0.34620 0.0
H345 H 0.55912 0.88267 0.27900 0.0
H346 H 0.60214 0.88242 0.25607 0.0
C347 C 0.41935 0.53343 0.50079 0.0
C348 C 0.40387 0.54627 0.50090 0.0
C349 C 0.38839 0.55909 0.50100 0.0
C350 C 0.37289 0.57190 0.50110 0.0
C351 C 0.47687 0.41555 0.50050 0.0
C352 C 0.46405 0.39878 0.50049 0.0
C353 C 0.45124 0.38200 0.50046 0.0
C354 C 0.43844 0.36521 0.50041 0.0
C355 C 0.59256 0.47470 0.50030 0.0
C356 C 0.60806 0.46189 0.50020 0.0
C357 C 0.62355 0.44907 0.50012 0.0
C358 C 0.63903 0.43624 0.50005 0.0
C359 C 0.53502 0.59256 0.50063 0.0
C360 C 0.54784 0.60934 0.50071 0.0
C361 C 0.56065 0.62612 0.50076 0.0
C362 C 0.57345 0.64290 0.50077 0.0
C363 C 0.03059 0.51919 0.94719 0.0
C364 C 0.04413 0.52853 0.92078 0.0
C365 C 0.05767 0.53790 0.89439 0.0
C366 C 0.07560 0.52944 0.88636 0.0
C367 C 0.08913 0.53880 0.85995 0.0
C368 C 0.08474 0.55664 0.84162 0.0
C369 C 0.06681 0.56509 0.84964 0.0
C370 C 0.05327 0.55572 0.87602 0.0
C371 C 0.09827 0.56600 0.81522 0.0
C372 C 0.11179 0.57537 0.78882 0.0
H373 H 0.07886 0.51626 0.89997 0.0
H374 H 0.10240 0.53254 0.85398 0.0
H375 H 0.06355 0.57829 0.83605 0.0
H376 H 0.03999 0.56198 0.88195 0.0
C377 C 0.49085 0.02726 0.94705 0.0
C378 C 0.48151 0.03989 0.92054 0.0
C379 C 0.47219 0.05254 0.89404 0.0
C380 C 0.45994 0.04474 0.86322 0.0
C381 C 0.45061 0.05739 0.83674 0.0
C382 C 0.45355 0.07784 0.84104 0.0
C383 C 0.46580 0.08564 0.87185 0.0
C384 C 0.47511 0.07299 0.89837 0.0
C385 C 0.44422 0.09049 0.81454 0.0
C386 C 0.43490 0.10315 0.78806 0.0
H387 H 0.45777 0.02960 0.86001 0.0
H388 H 0.44152 0.05162 0.81394 0.0
H389 H 0.46797 0.10078 0.87504 0.0
H390 H 0.48417 0.07877 0.92119 0.0
C391 C 0.97976 0.49250 0.05428 0.0
C392 C 0.96652 0.48262 0.08054 0.0
C393 C 0.95326 0.47275 0.10679 0.0
C394 C 0.95203 0.45212 0.10777 0.0
C395 C 0.93878 0.44226 0.13403 0.0
C396 C 0.92674 0.45303 0.15927 0.0
C397 C 0.92796 0.47366 0.15830 0.0
C398 C 0.94123 0.48352 0.13206 0.0
C399 C 0.91348 0.44316 0.18553 0.0
C400 C 0.90022 0.43331 0.21179 0.0
H401 H 0.96093 0.44415 0.08905 0.0
H402 H 0.93788 0.42699 0.13478 0.0
H403 H 0.91905 0.48163 0.17700 0.0
H404 H 0.94214 0.49880 0.13135 0.0
C405 C 0.51742 0.97893 0.05441 0.0
C406 C 0.52723 0.96660 0.08078 0.0
C407 C 0.53706 0.95428 0.10714 0.0
C408 C 0.52784 0.94745 0.14265 0.0
C409 C 0.53766 0.93512 0.16900 0.0
C410 C 0.55672 0.92964 0.15985 0.0
C411 C 0.56594 0.93647 0.12434 0.0
C412 C 0.55610 0.94878 0.09797 0.0
C413 C 0.56654 0.91731 0.18621 0.0
C414 C 0.57638 0.90499 0.21254 0.0
H415 H 0.51374 0.95152 0.14944 0.0
H416 H 0.53083 0.93005 0.19527 0.0
H417 H 0.58004 0.93240 0.11756 0.0
H418 H 0.56293 0.95383 0.07167 0.0
C419 C 0.49451 0.02913 0.05428 0.0
C420 C 0.48469 0.04145 0.08067 0.0
C421 C 0.47485 0.05379 0.10702 0.0
C422 C 0.47063 0.04765 0.14666 0.0
C423 C 0.46081 0.05999 0.17301 0.0
C424 C 0.45518 0.07845 0.15970 0.0
C425 C 0.45940 0.08458 0.12006 0.0
C426 C 0.46924 0.07225 0.09372 0.0
C427 C 0.44535 0.09078 0.18606 0.0
C428 C 0.43551 0.10312 0.21238 0.0
H429 H 0.47478 0.03398 0.15650 0.0
H430 H 0.45770 0.05546 0.20237 0.0
H431 H 0.45523 0.09825 0.11022 0.0
H432 H 0.47237 0.07679 0.06438 0.0
C433 C 0.03209 0.51556 0.05439 0.0
C434 C 0.04536 0.52545 0.08082 0.0
C435 C 0.05863 0.53532 0.10727 0.0
C436 C 0.06816 0.55312 0.09550 0.0
C437 C 0.08143 0.56300 0.12195 0.0
C438 C 0.08517 0.55505 0.16015 0.0
C439 C 0.07563 0.53725 0.17192 0.0
C440 C 0.06235 0.52739 0.14548 0.0
C441 C 0.09844 0.56493 0.18660 0.0
C442 C 0.11170 0.57478 0.21307 0.0
H443 H 0.06541 0.55899 0.06721 0.0
H444 H 0.08848 0.57618 0.11326 0.0
H445 H 0.07840 0.53138 0.20021 0.0
H446 H 0.05529 0.51421 0.15420 0.0
C447 C 0.98138 0.48890 0.94705 0.0
C448 C 0.96784 0.47952 0.92044 0.0
C449 C 0.95430 0.47016 0.89384 0.0
C450 C 0.96070 0.46255 0.85696 0.0
C451 C 0.94716 0.45318 0.83038 0.0
C452 C 0.92720 0.45144 0.84065 0.0
C453 C 0.92080 0.45904 0.87753 0.0
C454 C 0.93434 0.46840 0.90414 0.0
C455 C 0.91366 0.44207 0.81406 0.0
C456 C 0.90010 0.43271 0.78749 0.0
H457 H 0.97547 0.46386 0.84934 0.0
H458 H 0.95190 0.44754 0.80309 0.0
H459 H 0.90602 0.45774 0.88514 0.0
H460 H 0.92960 0.47402 0.93144 0.0
C461 C 0.52102 0.98090 0.94722 0.0
C462 C 0.53033 0.96822 0.92072 0.0
C463 C 0.53966 0.95556 0.89423 0.0
C464 C 0.53694 0.93511 0.89871 0.0
C465 C 0.54626 0.92245 0.87220 0.0
C466 C 0.55833 0.93024 0.84126 0.0
C467 C 0.56105 0.95068 0.83678 0.0
C468 C 0.55171 0.96334 0.86326 0.0
C469 C 0.56765 0.91757 0.81476 0.0
C470 C 0.57699 0.90492 0.78825 0.0
H471 H 0.52803 0.92935 0.92164 0.0
H472 H 0.54424 0.90731 0.87549 0.0
H473 H 0.56998 0.95644 0.81386 0.0
H474 H 0.55372 0.97848 0.85994 0.0
