data_{}
_symmetry_space_group_name_H-M    P1
_symmetry_Int_Tables_number       1
_symmetry_cell_setting            triclinic
loop_
_symmetry_equiv_pos_as_xyz
'x, y, z'
_cell_length_a     80.514
_cell_length_b     80.519
_cell_length_c     37.088
_cell_angle_alpha  89.313
_cell_angle_beta   90.933
_cell_angle_gamma  90.777
loop_
_atom_site_label
_atom_site_type_symbol
_atom_site_fract_x
_atom_site_fract_y
_atom_site_fract_z
_atom_type_partial_charge
C0 C 0.02165 0.49482 0.94763 0.0
C1 C 0.02461 0.49466 0.98398 0.0
C2 C 0.01314 0.50053 0.00857 0.0
H3 H 0.97620 0.51715 0.01025 0.0
C4 C 0.00438 0.50680 0.06899 0.0
C5 C 0.01588 0.50089 0.04659 0.0
H6 H 0.00429 0.50074 0.90922 0.0
C7 C 0.98917 0.51280 0.05534 0.0
C8 C 0.98622 0.51297 0.01899 0.0
C9 C 0.99768 0.50710 0.99440 0.0
C10 C 0.99494 0.50673 0.95637 0.0
C11 C 0.00644 0.50083 0.93397 0.0
H12 H 0.00653 0.50689 0.09374 0.0
H13 H 0.03462 0.49047 0.99271 0.0
C14 C 0.50120 0.99267 0.94697 0.0
C15 C 0.50104 0.98972 0.98328 0.0
C16 C 0.50691 0.00136 0.00831 0.0
H17 H 0.52352 0.03875 0.01127 0.0
C18 C 0.51318 0.01031 0.06918 0.0
C19 C 0.50728 0.99864 0.04634 0.0
H20 H 0.50710 0.01017 0.90905 0.0
C21 C 0.51919 0.02568 0.05599 0.0
C22 C 0.51934 0.02862 0.01968 0.0
C23 C 0.51347 0.01699 0.99465 0.0
C24 C 0.51310 0.01970 0.95662 0.0
C25 C 0.50720 0.00803 0.93378 0.0
H26 H 0.51328 0.00817 0.09391 0.0
H27 H 0.49686 0.97960 0.99169 0.0
H28 H 0.51292 0.47958 0.55306 0.0
H29 H 0.51884 0.45163 0.55616 0.0
H30 H 0.51875 0.45224 0.45041 0.0
H31 H 0.50920 0.47870 0.45116 0.0
H32 H 0.53493 0.51276 0.45052 0.0
H33 H 0.56321 0.51763 0.44825 0.0
H34 H 0.56350 0.51689 0.55399 0.0
H35 H 0.53524 0.51595 0.55234 0.0
H36 H 0.51068 0.54100 0.54733 0.0
H37 H 0.50701 0.56890 0.54634 0.0
H38 H 0.48179 0.56382 0.45287 0.0
H39 H 0.48696 0.53602 0.45686 0.0
H40 H 0.49255 0.50200 0.57780 0.0
H41 H 0.47676 0.49212 0.45481 0.0
H42 H 0.44935 0.48520 0.45505 0.0
H43 H 0.44555 0.50986 0.54783 0.0
H44 H 0.47341 0.51537 0.54464 0.0
H45 H 0.50624 0.52345 0.42461 0.0
C46 C 0.51339 0.47375 0.53163 0.0
C47 C 0.51714 0.45684 0.53390 0.0
C48 C 0.51820 0.44839 0.50317 0.0
C49 C 0.51658 0.45720 0.47233 0.0
C50 C 0.51174 0.47347 0.47306 0.0
C51 C 0.54073 0.51436 0.47210 0.0
C52 C 0.55790 0.51715 0.47033 0.0
C53 C 0.56645 0.51911 0.50129 0.0
C54 C 0.55787 0.51718 0.53188 0.0
C55 C 0.54087 0.51565 0.53064 0.0
C56 C 0.50503 0.54571 0.52776 0.0
C57 C 0.50279 0.56245 0.52759 0.0
C58 C 0.49409 0.56977 0.49893 0.0
C59 C 0.48792 0.55956 0.47222 0.0
C60 C 0.49114 0.54279 0.47513 0.0
C61 C 0.47044 0.49549 0.47410 0.0
C62 C 0.45397 0.49138 0.47381 0.0
C63 C 0.44415 0.49656 0.50204 0.0
C64 C 0.45163 0.50588 0.52878 0.0
C65 C 0.46847 0.50911 0.52634 0.0
S66 S 0.50493 0.50885 0.56741 0.0
S67 S 0.50451 0.50942 0.43526 0.0
N68 N 0.51049 0.48191 0.50176 0.0
N69 N 0.53229 0.51386 0.50170 0.0
N70 N 0.49960 0.53551 0.50143 0.0
N71 N 0.47818 0.50413 0.50048 0.0
Co72 Co 0.50507 0.50890 0.50134 0.0
C73 C 0.10563 0.44106 0.25881 0.0
C74 C 0.10908 0.42542 0.28191 0.0
C75 C 0.12097 0.42654 0.31474 0.0
C76 C 0.12459 0.41099 0.33806 0.0
C77 C 0.13655 0.41223 0.37080 0.0
C78 C 0.14487 0.42899 0.38008 0.0
C79 C 0.14121 0.44452 0.35685 0.0
C80 C 0.12927 0.44329 0.32416 0.0
C81 C 0.15664 0.41476 0.43517 0.0
C82 C 0.16721 0.41988 0.46807 0.0
C83 C 0.18622 0.41859 0.46702 0.0
C84 C 0.19685 0.42671 0.49698 0.0
C85 C 0.18849 0.43425 0.52997 0.0
C86 C 0.16942 0.43407 0.53249 0.0
C87 C 0.15878 0.42690 0.50146 0.0
C88 C 0.13971 0.42797 0.50252 0.0
C89 C 0.19457 0.41047 0.43464 0.0
C90 C 0.19922 0.44247 0.55969 0.0
C91 C 0.21583 0.42753 0.49389 0.0
C92 C 0.23857 0.44776 0.48473 0.0
C93 C 0.24995 0.43281 0.49139 0.0
C94 C 0.26892 0.43542 0.49361 0.0
C95 C 0.27645 0.45299 0.48915 0.0
C96 C 0.26505 0.46793 0.48219 0.0
C97 C 0.24610 0.46532 0.47998 0.0
C98 C 0.29541 0.45556 0.49174 0.0
C99 C 0.30671 0.44056 0.49887 0.0
C100 C 0.16093 0.44190 0.56489 0.0
C101 C 0.15072 0.43461 0.62505 0.0
C102 C 0.14505 0.45275 0.62690 0.0
C103 C 0.13294 0.45793 0.65628 0.0
C104 C 0.12650 0.44493 0.68365 0.0
C105 C 0.13222 0.42680 0.68180 0.0
C106 C 0.14434 0.42163 0.65248 0.0
C107 C 0.11427 0.44999 0.71285 0.0
C108 C 0.10780 0.43686 0.73986 0.0
O109 O 0.15643 0.43036 0.41226 0.0
O110 O 0.16191 0.42934 0.59526 0.0
O111 O 0.22000 0.44527 0.48376 0.0
H112 H 0.11188 0.45339 0.26609 0.0
H113 H 0.10285 0.41307 0.27472 0.0
H114 H 0.11843 0.39859 0.33109 0.0
H115 H 0.13923 0.40076 0.38814 0.0
H116 H 0.14735 0.45693 0.36388 0.0
H117 H 0.12658 0.45478 0.30690 0.0
H118 H 0.16260 0.40414 0.42023 0.0
H119 H 0.14353 0.41118 0.44381 0.0
H120 H 0.13605 0.43635 0.52557 0.0
H121 H 0.13410 0.41504 0.50684 0.0
H122 H 0.13490 0.43340 0.47586 0.0
H123 H 0.18559 0.41036 0.41056 0.0
H124 H 0.19797 0.39716 0.44219 0.0
H125 H 0.20633 0.41771 0.42730 0.0
H126 H 0.19083 0.44807 0.58068 0.0
H127 H 0.20725 0.45267 0.54706 0.0
H128 H 0.20756 0.43278 0.57310 0.0
H129 H 0.22187 0.42420 0.52099 0.0
H130 H 0.22018 0.41875 0.47217 0.0
H131 H 0.24434 0.41982 0.49484 0.0
H132 H 0.27737 0.42436 0.49862 0.0
H133 H 0.27065 0.48093 0.47876 0.0
H134 H 0.23762 0.47637 0.47498 0.0
H135 H 0.30106 0.46853 0.48843 0.0
H136 H 0.30101 0.42760 0.50215 0.0
H137 H 0.16741 0.45399 0.57305 0.0
H138 H 0.14735 0.44434 0.55762 0.0
H139 H 0.14973 0.46230 0.60640 0.0
H140 H 0.12869 0.47135 0.65770 0.0
H141 H 0.12742 0.41720 0.70210 0.0
H142 H 0.14850 0.40820 0.65091 0.0
H143 H 0.11000 0.46340 0.71444 0.0
H144 H 0.11211 0.42346 0.73816 0.0
C145 C 0.57283 0.11285 0.27002 0.0
C146 C 0.58847 0.11654 0.29317 0.0
C147 C 0.58737 0.12816 0.32567 0.0
C148 C 0.60292 0.13202 0.34903 0.0
C149 C 0.60169 0.14370 0.38144 0.0
C150 C 0.58493 0.15152 0.39035 0.0
C151 C 0.56939 0.14762 0.36708 0.0
C152 C 0.57062 0.13595 0.33472 0.0
C153 C 0.59917 0.16325 0.44526 0.0
C154 C 0.59406 0.17345 0.47784 0.0
C155 C 0.59535 0.19251 0.47629 0.0
C156 C 0.58725 0.20270 0.50589 0.0
C157 C 0.57970 0.19390 0.53904 0.0
C158 C 0.57987 0.17482 0.54208 0.0
C159 C 0.58703 0.16459 0.51139 0.0
C160 C 0.58595 0.14548 0.51296 0.0
C161 C 0.60348 0.20131 0.44375 0.0
C162 C 0.57149 0.20419 0.56840 0.0
C163 C 0.58644 0.22168 0.50229 0.0
C164 C 0.56621 0.24395 0.49234 0.0
C165 C 0.58117 0.25568 0.49883 0.0
C166 C 0.57857 0.27456 0.50051 0.0
C167 C 0.56100 0.28166 0.49570 0.0
C168 C 0.54605 0.26992 0.48891 0.0
C169 C 0.54866 0.25105 0.48723 0.0
C170 C 0.55844 0.30053 0.49776 0.0
C171 C 0.57345 0.31218 0.50472 0.0
C172 C 0.57204 0.16587 0.57463 0.0
C173 C 0.57933 0.15542 0.63513 0.0
C174 C 0.56118 0.14926 0.63698 0.0
C175 C 0.55600 0.13680 0.66664 0.0
C176 C 0.56900 0.13050 0.69429 0.0
C177 C 0.58713 0.13670 0.69246 0.0
C178 C 0.59231 0.14918 0.66285 0.0
C179 C 0.56393 0.11792 0.72378 0.0
C180 C 0.57706 0.11160 0.75108 0.0
O181 O 0.58356 0.16281 0.42222 0.0
O182 O 0.58460 0.16696 0.60509 0.0
O183 O 0.56869 0.22546 0.49188 0.0
H184 H 0.56050 0.11872 0.27703 0.0
H185 H 0.60082 0.11069 0.28625 0.0
H186 H 0.61532 0.12624 0.34234 0.0
H187 H 0.61316 0.14656 0.39881 0.0
H188 H 0.55698 0.15337 0.37385 0.0
H189 H 0.55913 0.13308 0.31744 0.0
H190 H 0.60979 0.16961 0.43025 0.0
H191 H 0.60274 0.15018 0.45428 0.0
H192 H 0.57758 0.14144 0.53603 0.0
H193 H 0.59888 0.14018 0.51754 0.0
H194 H 0.58052 0.14073 0.48637 0.0
H195 H 0.60359 0.19250 0.41992 0.0
H196 H 0.61680 0.20500 0.45133 0.0
H197 H 0.59625 0.21292 0.43604 0.0
H198 H 0.56588 0.19550 0.58957 0.0
H199 H 0.56128 0.21205 0.55547 0.0
H200 H 0.58118 0.21268 0.58168 0.0
H201 H 0.58977 0.22761 0.52925 0.0
H202 H 0.59521 0.22642 0.48053 0.0
H203 H 0.59416 0.25039 0.50254 0.0
H204 H 0.58963 0.28327 0.50540 0.0
H205 H 0.53306 0.27520 0.48521 0.0
H206 H 0.53760 0.24232 0.48236 0.0
H207 H 0.54547 0.30587 0.49419 0.0
H208 H 0.58641 0.30680 0.50827 0.0
H209 H 0.55995 0.17198 0.58251 0.0
H210 H 0.56959 0.15229 0.56771 0.0
H211 H 0.55163 0.15384 0.61627 0.0
H212 H 0.54258 0.13218 0.66805 0.0
H213 H 0.59673 0.13201 0.71296 0.0
H214 H 0.60574 0.15371 0.66129 0.0
H215 H 0.55052 0.11328 0.72537 0.0
H216 H 0.59046 0.11627 0.74939 0.0
C217 C 0.90610 0.56859 0.74413 0.0
C218 C 0.90224 0.55295 0.72183 0.0
C219 C 0.89038 0.55407 0.68894 0.0
C220 C 0.88634 0.53852 0.66642 0.0
C221 C 0.87442 0.53976 0.63362 0.0
C222 C 0.86654 0.55652 0.62348 0.0
C223 C 0.87062 0.57205 0.64591 0.0
C224 C 0.88252 0.57082 0.67867 0.0
C225 C 0.85439 0.54229 0.56911 0.0
C226 C 0.84396 0.54741 0.53595 0.0
C227 C 0.82491 0.54612 0.53706 0.0
C228 C 0.81450 0.55424 0.50669 0.0
C229 C 0.82306 0.56178 0.47332 0.0
C230 C 0.84213 0.56160 0.47080 0.0
C231 C 0.85258 0.55443 0.50220 0.0
C232 C 0.87168 0.55550 0.50108 0.0
C233 C 0.81634 0.53800 0.56986 0.0
C234 C 0.81256 0.57000 0.44317 0.0
C235 C 0.79554 0.55506 0.50974 0.0
C236 C 0.77334 0.57530 0.51786 0.0
C237 C 0.76156 0.56034 0.51196 0.0
C238 C 0.74267 0.56295 0.50962 0.0
C239 C 0.73560 0.58052 0.51317 0.0
C240 C 0.74740 0.59546 0.51937 0.0
C241 C 0.76629 0.59285 0.52171 0.0
C242 C 0.71672 0.58309 0.51045 0.0
C243 C 0.70502 0.56809 0.50409 0.0
C244 C 0.85083 0.56943 0.43801 0.0
C245 C 0.86085 0.56214 0.37822 0.0
C246 C 0.86700 0.58028 0.37544 0.0
C247 C 0.87925 0.58545 0.34580 0.0
C248 C 0.88534 0.57246 0.31910 0.0
C249 C 0.87914 0.55433 0.32187 0.0
C250 C 0.86688 0.54916 0.35146 0.0
C251 C 0.89770 0.57752 0.28964 0.0
C252 C 0.90382 0.56439 0.26329 0.0
O253 O 0.85502 0.55789 0.59122 0.0
O254 O 0.84952 0.55687 0.40827 0.0
O255 O 0.79185 0.57280 0.51896 0.0
H256 H 0.90018 0.58092 0.73622 0.0
H257 H 0.90813 0.54060 0.72966 0.0
H258 H 0.89217 0.52612 0.67402 0.0
H259 H 0.87143 0.52829 0.61686 0.0
H260 H 0.86481 0.58446 0.63824 0.0
H261 H 0.88552 0.58230 0.69534 0.0
H262 H 0.84815 0.53167 0.58460 0.0
H263 H 0.86741 0.53871 0.56066 0.0
H264 H 0.87556 0.56388 0.47761 0.0
H265 H 0.87694 0.54257 0.49743 0.0
H266 H 0.87663 0.56092 0.52747 0.0
H267 H 0.82533 0.53789 0.59394 0.0
H268 H 0.81259 0.52469 0.56299 0.0
H269 H 0.80478 0.54524 0.57683 0.0
H270 H 0.82110 0.57560 0.42190 0.0
H271 H 0.80479 0.58020 0.45528 0.0
H272 H 0.80396 0.56031 0.43026 0.0
H273 H 0.78941 0.55173 0.48281 0.0
H274 H 0.79096 0.54628 0.53191 0.0
H275 H 0.76683 0.54735 0.50918 0.0
H276 H 0.73392 0.55190 0.50517 0.0
H277 H 0.74216 0.60846 0.52214 0.0
H278 H 0.77506 0.60390 0.52615 0.0
H279 H 0.71141 0.59607 0.51309 0.0
H280 H 0.71036 0.55513 0.50147 0.0
H281 H 0.84467 0.58151 0.42923 0.0
H282 H 0.86447 0.57187 0.44515 0.0
H283 H 0.86257 0.58983 0.39545 0.0
H284 H 0.88385 0.59888 0.34369 0.0
H285 H 0.88368 0.54473 0.30206 0.0
H286 H 0.86236 0.53573 0.35371 0.0
H287 H 0.90234 0.59092 0.28736 0.0
H288 H 0.89916 0.55099 0.26568 0.0
C289 C 0.44543 0.90637 0.73282 0.0
C290 C 0.46107 0.90310 0.71076 0.0
C291 C 0.45997 0.89145 0.67818 0.0
C292 C 0.47552 0.88801 0.65591 0.0
C293 C 0.47429 0.87629 0.62342 0.0
C294 C 0.45753 0.86803 0.61333 0.0
C295 C 0.44199 0.87151 0.63551 0.0
C296 C 0.44322 0.88321 0.66796 0.0
C297 C 0.47177 0.85667 0.55942 0.0
C298 C 0.46666 0.84633 0.52649 0.0
C299 C 0.46796 0.82732 0.52813 0.0
C300 C 0.45985 0.81691 0.49796 0.0
C301 C 0.45231 0.82551 0.46428 0.0
C302 C 0.45247 0.84459 0.46126 0.0
C303 C 0.45963 0.85501 0.49244 0.0
C304 C 0.45855 0.87409 0.49080 0.0
C305 C 0.47608 0.81873 0.56123 0.0
C306 C 0.44409 0.81499 0.43434 0.0
C307 C 0.45904 0.79790 0.50151 0.0
C308 C 0.43881 0.77509 0.51004 0.0
C309 C 0.45378 0.76376 0.50460 0.0
C310 C 0.45117 0.74481 0.50274 0.0
C311 C 0.43361 0.73724 0.50632 0.0
C312 C 0.41866 0.74858 0.51206 0.0
C313 C 0.42126 0.76752 0.51392 0.0
C314 C 0.43105 0.71830 0.50408 0.0
C315 C 0.44606 0.70706 0.49817 0.0
C316 C 0.44464 0.85332 0.42815 0.0
C317 C 0.45193 0.86398 0.36816 0.0
C318 C 0.43378 0.86965 0.36505 0.0
C319 C 0.42860 0.88197 0.33502 0.0
C320 C 0.44160 0.88862 0.30828 0.0
C321 C 0.45973 0.88289 0.31138 0.0
C322 C 0.46491 0.87056 0.34135 0.0
C323 C 0.43653 0.90106 0.27843 0.0
C324 C 0.44966 0.90773 0.25205 0.0
O325 O 0.45616 0.85670 0.58137 0.0
O326 O 0.45720 0.85257 0.39857 0.0
O327 O 0.44129 0.79365 0.51067 0.0
H328 H 0.43310 0.90017 0.72494 0.0
H329 H 0.47342 0.90928 0.71855 0.0
H330 H 0.48792 0.89412 0.66347 0.0
H331 H 0.48576 0.87374 0.60685 0.0
H332 H 0.42958 0.86542 0.62788 0.0
H333 H 0.43173 0.88577 0.68444 0.0
H334 H 0.48239 0.85060 0.57518 0.0
H335 H 0.47534 0.86984 0.55065 0.0
H336 H 0.45018 0.87791 0.46714 0.0
H337 H 0.47149 0.87973 0.48712 0.0
H338 H 0.45313 0.87870 0.51700 0.0
H339 H 0.47619 0.82754 0.58508 0.0
H340 H 0.48940 0.81540 0.55459 0.0
H341 H 0.46885 0.80692 0.56844 0.0
H342 H 0.43848 0.82353 0.41278 0.0
H343 H 0.43389 0.80686 0.44656 0.0
H344 H 0.45378 0.80676 0.42175 0.0
H345 H 0.46238 0.79206 0.47477 0.0
H346 H 0.46782 0.79340 0.52388 0.0
H347 H 0.46677 0.76940 0.50179 0.0
H348 H 0.46224 0.73640 0.49862 0.0
H349 H 0.40566 0.74296 0.51484 0.0
H350 H 0.41020 0.77596 0.51801 0.0
H351 H 0.41807 0.71262 0.50674 0.0
H352 H 0.45901 0.71278 0.49553 0.0
H353 H 0.43256 0.84689 0.41942 0.0
H354 H 0.44219 0.86684 0.43491 0.0
H355 H 0.42423 0.86481 0.38509 0.0
H356 H 0.41518 0.88623 0.33267 0.0
H357 H 0.46933 0.88784 0.29155 0.0
H358 H 0.47835 0.86639 0.34386 0.0
H359 H 0.42312 0.90534 0.27591 0.0
H360 H 0.46306 0.90342 0.25468 0.0
H361 H 0.43395 0.47602 0.47786 0.0
H362 H 0.41015 0.49494 0.47759 0.0
H363 H 0.40481 0.46444 0.47768 0.0
H364 H 0.32203 0.46068 0.47702 0.0
H365 H 0.34582 0.44176 0.47730 0.0
H366 H 0.35116 0.47227 0.47721 0.0
H367 H 0.32230 0.46046 0.52443 0.0
H368 H 0.34609 0.44155 0.52470 0.0
H369 H 0.35143 0.47205 0.52461 0.0
H370 H 0.43422 0.47581 0.52527 0.0
H371 H 0.41043 0.49472 0.52500 0.0
H372 H 0.40508 0.46422 0.52508 0.0
C373 C 0.43139 0.48330 0.50151 0.0
C374 C 0.41313 0.48733 0.50135 0.0
C375 C 0.40218 0.47174 0.50133 0.0
C376 C 0.38366 0.47607 0.50116 0.0
C377 C 0.32485 0.45319 0.50078 0.0
C378 C 0.34311 0.44916 0.50094 0.0
C379 C 0.35406 0.46475 0.50097 0.0
C380 C 0.37258 0.46042 0.50113 0.0
H381 H 0.50845 0.42485 0.52354 0.0
H382 H 0.53895 0.42342 0.52834 0.0
H383 H 0.52244 0.39714 0.52476 0.0
H384 H 0.58180 0.34020 0.53214 0.0
H385 H 0.55130 0.34162 0.52734 0.0
H386 H 0.56781 0.36791 0.53092 0.0
H387 H 0.58305 0.34084 0.48487 0.0
H388 H 0.55255 0.34226 0.48007 0.0
H389 H 0.56906 0.36855 0.48365 0.0
H390 H 0.50970 0.42549 0.47627 0.0
H391 H 0.54020 0.42407 0.48107 0.0
H392 H 0.52369 0.39778 0.47749 0.0
C393 C 0.51604 0.42893 0.50115 0.0
C394 C 0.53240 0.41999 0.50343 0.0
C395 C 0.53011 0.40119 0.50238 0.0
C396 C 0.54687 0.39231 0.50473 0.0
C397 C 0.57545 0.33676 0.50726 0.0
C398 C 0.55909 0.34569 0.50498 0.0
C399 C 0.56139 0.36450 0.50603 0.0
C400 C 0.54463 0.37337 0.50369 0.0
H401 H 0.57695 0.53884 0.47844 0.0
H402 H 0.60031 0.51940 0.47902 0.0
H403 H 0.60633 0.54979 0.47835 0.0
H404 H 0.68915 0.55171 0.47879 0.0
H405 H 0.66578 0.57116 0.47820 0.0
H406 H 0.65977 0.54077 0.47887 0.0
H407 H 0.68945 0.55169 0.52619 0.0
H408 H 0.66608 0.57113 0.52560 0.0
H409 H 0.66007 0.54074 0.52627 0.0
H410 H 0.57725 0.53882 0.52584 0.0
H411 H 0.60061 0.51937 0.52642 0.0
H412 H 0.60662 0.54976 0.52576 0.0
C413 C 0.57962 0.53139 0.50232 0.0
C414 C 0.59779 0.52696 0.50253 0.0
C415 C 0.60907 0.54230 0.50224 0.0
C416 C 0.62749 0.53756 0.50246 0.0
C417 C 0.68677 0.55914 0.50230 0.0
C418 C 0.66861 0.56357 0.50209 0.0
C419 C 0.65732 0.54823 0.50238 0.0
C420 C 0.63891 0.55297 0.50217 0.0
H421 H 0.47507 0.57996 0.47537 0.0
H422 H 0.49454 0.60382 0.47503 0.0
H423 H 0.46415 0.60905 0.47469 0.0
H424 H 0.46231 0.69182 0.47298 0.0
H425 H 0.44284 0.66795 0.47332 0.0
H426 H 0.47322 0.66273 0.47366 0.0
H427 H 0.46258 0.69177 0.52039 0.0
H428 H 0.44312 0.66790 0.52073 0.0
H429 H 0.47350 0.66268 0.52107 0.0
H430 H 0.47535 0.57991 0.52277 0.0
H431 H 0.49482 0.60377 0.52243 0.0
H432 H 0.46443 0.60900 0.52209 0.0
C433 C 0.48265 0.58265 0.49907 0.0
C434 C 0.48710 0.60093 0.49873 0.0
C435 C 0.47177 0.61182 0.49839 0.0
C436 C 0.47653 0.63035 0.49805 0.0
C437 C 0.45500 0.68908 0.49668 0.0
C438 C 0.45055 0.67080 0.49702 0.0
C439 C 0.46589 0.65991 0.49736 0.0
C440 C 0.46113 0.64137 0.49771 0.0
C441 C 0.03655 0.48884 0.91849 0.0
C442 C 0.04746 0.48029 0.89073 0.0
C443 C 0.05839 0.47172 0.86294 0.0
C444 C 0.06934 0.46320 0.83522 0.0
C445 C 0.08037 0.45472 0.80751 0.0
C446 C 0.09143 0.44627 0.77986 0.0
C447 C 0.52391 0.03721 0.92933 0.0
C448 C 0.53261 0.04861 0.90166 0.0
C449 C 0.54132 0.06002 0.87397 0.0
C450 C 0.55001 0.07146 0.84638 0.0
C451 C 0.55871 0.08297 0.81887 0.0
C452 C 0.56740 0.09452 0.79145 0.0
C453 C 0.97436 0.51876 0.08431 0.0
C454 C 0.96346 0.52733 0.11207 0.0
C455 C 0.95254 0.53591 0.13985 0.0
C456 C 0.94167 0.54452 0.16761 0.0
C457 C 0.93085 0.55319 0.19541 0.0
C458 C 0.92007 0.56190 0.22320 0.0
C459 C 0.49641 0.98127 0.07340 0.0
C460 C 0.48752 0.96994 0.10093 0.0
C461 C 0.47863 0.95861 0.12849 0.0
C462 C 0.46979 0.94727 0.15607 0.0
C463 C 0.46102 0.93591 0.18375 0.0
C464 C 0.45230 0.92454 0.21146 0.0
C465 C 0.52516 0.04076 0.08552 0.0
C466 C 0.53372 0.05196 0.11378 0.0
C467 C 0.54230 0.06317 0.14207 0.0
C468 C 0.55081 0.07437 0.17037 0.0
C469 C 0.55927 0.08560 0.19878 0.0
C470 C 0.56767 0.09683 0.22720 0.0
C471 C 0.03312 0.49009 0.07467 0.0
C472 C 0.04434 0.48144 0.10296 0.0
C473 C 0.05556 0.47278 0.13127 0.0
C474 C 0.06678 0.46409 0.15948 0.0
C475 C 0.07803 0.45534 0.18760 0.0
C476 C 0.08928 0.44655 0.21563 0.0
C477 C 0.97782 0.51757 0.92853 0.0
C478 C 0.96664 0.52635 0.90036 0.0
C479 C 0.95546 0.53515 0.87217 0.0
C480 C 0.94433 0.54396 0.84397 0.0
C481 C 0.93326 0.55281 0.81566 0.0
C482 C 0.92223 0.56167 0.78732 0.0
C483 C 0.49519 0.97774 0.91752 0.0
C484 C 0.48650 0.96669 0.88916 0.0
C485 C 0.47780 0.95563 0.86076 0.0
C486 C 0.46916 0.94455 0.83239 0.0
C487 C 0.46058 0.93342 0.80396 0.0
C488 C 0.45205 0.92228 0.77555 0.0
