data_{}
_symmetry_space_group_name_H-M    P1
_symmetry_Int_Tables_number       1
_symmetry_cell_setting            triclinic
loop_
_symmetry_equiv_pos_as_xyz
'x, y, z'
_cell_length_a     84.080
_cell_length_b     84.079
_cell_length_c     47.801
_cell_angle_alpha  89.951
_cell_angle_beta   89.951
_cell_angle_gamma  96.023
loop_
_atom_site_label
_atom_site_type_symbol
_atom_site_fract_x
_atom_site_fract_y
_atom_site_fract_z
_atom_type_partial_charge
H0 H 0.03963 0.49118 0.95451 0.0
H1 H 0.05478 0.49264 0.91321 0.0
H2 H 0.03455 0.53280 0.89209 0.0
H3 H 0.01832 0.52981 0.93115 0.0
H4 H 0.03867 0.51028 0.99729 0.0
H5 H 0.00210 0.48912 0.93218 0.0
H6 H 0.98465 0.48586 0.89455 0.0
H7 H 0.96081 0.52066 0.92095 0.0
H8 H 0.97755 0.52493 0.95981 0.0
H9 H 0.98272 0.52899 0.04570 0.0
H10 H 0.96756 0.52753 0.08699 0.0
H11 H 0.98780 0.48737 0.10811 0.0
H12 H 0.00403 0.49036 0.06905 0.0
H13 H 0.98367 0.50988 0.00291 0.0
H14 H 0.02025 0.53105 0.06802 0.0
H15 H 0.03770 0.53430 0.10565 0.0
H16 H 0.06153 0.49950 0.07925 0.0
H17 H 0.04480 0.49524 0.04039 0.0
C18 C 0.02779 0.51041 0.94697 0.0
C19 C 0.03850 0.49951 0.94149 0.0
C20 C 0.04774 0.50048 0.91714 0.0
C21 C 0.04649 0.51312 0.89873 0.0
C22 C 0.03547 0.52414 0.90455 0.0
C23 C 0.02606 0.52256 0.92794 0.0
C24 C 0.01877 0.50959 0.97371 0.0
C25 C 0.02739 0.51029 0.99835 0.0
C26 C 0.00207 0.50918 0.97519 0.0
C27 C 0.99151 0.50731 0.95017 0.0
C28 C 0.99365 0.49571 0.93043 0.0
C29 C 0.98308 0.49392 0.90790 0.0
C30 C 0.97137 0.50237 0.90379 0.0
C31 C 0.96930 0.51417 0.92345 0.0
C32 C 0.97920 0.51680 0.94668 0.0
C33 C 0.99456 0.50975 0.05323 0.0
C34 C 0.98385 0.52065 0.05871 0.0
C35 C 0.97461 0.51968 0.08307 0.0
C36 C 0.97586 0.50705 0.10147 0.0
C37 C 0.98687 0.49602 0.09565 0.0
C38 C 0.99628 0.49761 0.07226 0.0
C39 C 0.00357 0.51058 0.02649 0.0
C40 C 0.99496 0.50988 0.00185 0.0
C41 C 0.02027 0.51099 0.02501 0.0
C42 C 0.03084 0.51285 0.05003 0.0
C43 C 0.02870 0.52446 0.06977 0.0
C44 C 0.03927 0.52624 0.09230 0.0
C45 C 0.05097 0.51780 0.09641 0.0
C46 C 0.05305 0.50600 0.07675 0.0
C47 C 0.04315 0.50337 0.05352 0.0
H48 H 0.53015 0.98160 0.04569 0.0
H49 H 0.52869 0.96644 0.08699 0.0
H50 H 0.48853 0.98668 0.10811 0.0
H51 H 0.49152 0.00291 0.06905 0.0
H52 H 0.51105 0.98255 0.00291 0.0
H53 H 0.53221 0.01913 0.06802 0.0
H54 H 0.53547 0.03658 0.10565 0.0
H55 H 0.50066 0.06041 0.07925 0.0
H56 H 0.49640 0.04368 0.04039 0.0
H57 H 0.49234 0.03851 0.95450 0.0
H58 H 0.49380 0.05366 0.91321 0.0
H59 H 0.53396 0.03343 0.89209 0.0
H60 H 0.53097 0.01720 0.93115 0.0
H61 H 0.51144 0.03755 0.99729 0.0
H62 H 0.49028 0.00010 0.93218 0.0
H63 H 0.48702 0.98352 0.89455 0.0
H64 H 0.52183 0.95969 0.92095 0.0
H65 H 0.52609 0.97642 0.95981 0.0
C66 C 0.51092 0.99344 0.05323 0.0
C67 C 0.52182 0.98273 0.05871 0.0
C68 C 0.52085 0.97349 0.08306 0.0
C69 C 0.50821 0.97473 0.10147 0.0
C70 C 0.49719 0.98575 0.09565 0.0
C71 C 0.49877 0.99516 0.07226 0.0
C72 C 0.51174 0.00245 0.02649 0.0
C73 C 0.51104 0.99384 0.00185 0.0
C74 C 0.51215 0.01915 0.02501 0.0
C75 C 0.51402 0.02972 0.05003 0.0
C76 C 0.52562 0.02758 0.06977 0.0
C77 C 0.52740 0.03815 0.09230 0.0
C78 C 0.51896 0.04985 0.09641 0.0
C79 C 0.50716 0.05193 0.07675 0.0
C80 C 0.50453 0.04203 0.05352 0.0
C81 C 0.51157 0.02667 0.94697 0.0
C82 C 0.50068 0.03738 0.94149 0.0
C83 C 0.50165 0.04662 0.91713 0.0
C84 C 0.51428 0.04537 0.89873 0.0
C85 C 0.52530 0.03435 0.90455 0.0
C86 C 0.52372 0.02494 0.92794 0.0
C87 C 0.51075 0.01765 0.97371 0.0
C88 C 0.51145 0.02627 0.99835 0.0
C89 C 0.51034 0.00010 0.97519 0.0
C90 C 0.50848 0.99039 0.95017 0.0
C91 C 0.49687 0.99253 0.93043 0.0
C92 C 0.49509 0.98196 0.90790 0.0
C93 C 0.50353 0.97025 0.90379 0.0
C94 C 0.51533 0.96818 0.92345 0.0
C95 C 0.51796 0.97808 0.94668 0.0
C96 C 0.50434 0.50321 0.50011 0.0
C97 C 0.51802 0.51689 0.50002 0.0
C98 C 0.51405 0.53435 0.49998 0.0
C99 C 0.53548 0.51292 0.49998 0.0
C100 C 0.50830 0.48574 0.50016 0.0
C101 C 0.48687 0.50717 0.50015 0.0
C102 C 0.51138 0.54294 0.47225 0.0
C103 C 0.50877 0.56065 0.47221 0.0
C104 C 0.50613 0.56927 0.49989 0.0
C105 C 0.50880 0.56069 0.52760 0.0
C106 C 0.51141 0.54297 0.52766 0.0
C107 C 0.54407 0.51025 0.47226 0.0
C108 C 0.56178 0.50763 0.47221 0.0
C109 C 0.57040 0.50499 0.49989 0.0
C110 C 0.56182 0.50767 0.52761 0.0
C111 C 0.54410 0.51028 0.52766 0.0
C112 C 0.51098 0.47716 0.52788 0.0
C113 C 0.51359 0.45944 0.52793 0.0
C114 C 0.51623 0.45082 0.50024 0.0
C115 C 0.51355 0.45941 0.47253 0.0
C116 C 0.51094 0.47712 0.47248 0.0
C117 C 0.47829 0.50985 0.52788 0.0
C118 C 0.46057 0.51246 0.52793 0.0
C119 C 0.45195 0.51510 0.50024 0.0
C120 C 0.46054 0.51243 0.47252 0.0
C121 C 0.47825 0.50981 0.47247 0.0
H122 H 0.51134 0.53607 0.45170 0.0
H123 H 0.50878 0.56750 0.45161 0.0
H124 H 0.50884 0.56753 0.54819 0.0
H125 H 0.51140 0.53613 0.54826 0.0
H126 H 0.53720 0.51021 0.45170 0.0
H127 H 0.56862 0.50764 0.45161 0.0
H128 H 0.53726 0.51027 0.54826 0.0
H129 H 0.51101 0.48403 0.54843 0.0
H130 H 0.51358 0.45260 0.54853 0.0
H131 H 0.51351 0.45256 0.45195 0.0
H132 H 0.51095 0.48396 0.45187 0.0
H133 H 0.48516 0.50988 0.54843 0.0
H134 H 0.45373 0.51245 0.54853 0.0
H135 H 0.45369 0.51239 0.45194 0.0
H136 H 0.48509 0.50982 0.45187 0.0
H137 H 0.56866 0.50771 0.54819 0.0
C138 C 0.13440 0.54609 0.31550 0.0
C139 C 0.13609 0.53100 0.33309 0.0
C140 C 0.14743 0.53197 0.35843 0.0
C141 C 0.14929 0.51697 0.37619 0.0
C142 C 0.16071 0.51806 0.40146 0.0
C143 C 0.17026 0.53413 0.40887 0.0
C144 C 0.16836 0.54911 0.39118 0.0
C145 C 0.15696 0.54803 0.36595 0.0
C146 C 0.17991 0.52032 0.45120 0.0
C147 C 0.19038 0.52516 0.47669 0.0
C148 C 0.20844 0.52376 0.47561 0.0
C149 C 0.21926 0.53148 0.49887 0.0
C150 C 0.21186 0.53881 0.52470 0.0
C151 C 0.19359 0.53881 0.52690 0.0
C152 C 0.18284 0.53200 0.50283 0.0
C153 C 0.16470 0.53319 0.50391 0.0
C154 C 0.21578 0.51587 0.45023 0.0
C155 C 0.22279 0.54663 0.54778 0.0
C156 C 0.23752 0.53211 0.49624 0.0
C157 C 0.26127 0.55140 0.48923 0.0
C158 C 0.27068 0.53689 0.49397 0.0
C159 C 0.28906 0.53925 0.49550 0.0
C160 C 0.29799 0.55610 0.49227 0.0
C161 C 0.28856 0.57059 0.48729 0.0
C162 C 0.27018 0.56823 0.48577 0.0
C163 C 0.31636 0.55841 0.49409 0.0
C164 C 0.32569 0.54387 0.49920 0.0
C165 C 0.18608 0.54642 0.55229 0.0
C166 C 0.17536 0.53948 0.59896 0.0
C167 C 0.17168 0.55700 0.60080 0.0
C168 C 0.16047 0.56209 0.62385 0.0
C169 C 0.15294 0.54963 0.64492 0.0
C170 C 0.15666 0.53212 0.64308 0.0
C171 C 0.16788 0.52704 0.62008 0.0
C172 C 0.14161 0.55461 0.66782 0.0
C173 C 0.13404 0.54202 0.68862 0.0
O174 O 0.18132 0.53535 0.43372 0.0
O175 O 0.18568 0.53432 0.57561 0.0
O176 O 0.24326 0.54916 0.48866 0.0
H177 H 0.14154 0.55790 0.32130 0.0
H178 H 0.12897 0.51916 0.32736 0.0
H179 H 0.14223 0.50508 0.37064 0.0
H180 H 0.16210 0.50699 0.41467 0.0
H181 H 0.17540 0.56101 0.39679 0.0
H182 H 0.15556 0.55911 0.35280 0.0
H183 H 0.18464 0.51005 0.43933 0.0
H184 H 0.16698 0.51699 0.45800 0.0
H185 H 0.16192 0.54129 0.52200 0.0
H186 H 0.15807 0.52079 0.50710 0.0
H187 H 0.16074 0.53845 0.48339 0.0
H188 H 0.20728 0.51583 0.43166 0.0
H189 H 0.21771 0.50301 0.45579 0.0
H190 H 0.22776 0.52273 0.44452 0.0
H191 H 0.21522 0.55210 0.56428 0.0
H192 H 0.23152 0.55639 0.53807 0.0
H193 H 0.22977 0.53724 0.55790 0.0
H194 H 0.24286 0.52885 0.51713 0.0
H195 H 0.24092 0.52362 0.47917 0.0
H196 H 0.26404 0.52444 0.49648 0.0
H197 H 0.29606 0.52853 0.49908 0.0
H198 H 0.29518 0.58305 0.48480 0.0
H199 H 0.26316 0.57895 0.48220 0.0
H200 H 0.32304 0.57086 0.49169 0.0
H201 H 0.31898 0.53144 0.50158 0.0
H202 H 0.19342 0.55800 0.55876 0.0
H203 H 0.17336 0.54889 0.54687 0.0
H204 H 0.17717 0.56616 0.58502 0.0
H205 H 0.15770 0.57505 0.62525 0.0
H206 H 0.15106 0.52293 0.65871 0.0
H207 H 0.17057 0.51407 0.61856 0.0
H208 H 0.13881 0.56756 0.66936 0.0
H209 H 0.13686 0.52909 0.68700 0.0
C210 C 0.54600 0.13315 0.31550 0.0
C211 C 0.56109 0.13800 0.33305 0.0
C212 C 0.56012 0.14915 0.35839 0.0
C213 C 0.57512 0.15416 0.37610 0.0
C214 C 0.57403 0.16535 0.40137 0.0
C215 C 0.55796 0.17152 0.40883 0.0
C216 C 0.54297 0.16647 0.39119 0.0
C217 C 0.54406 0.15530 0.36595 0.0
C218 C 0.57176 0.18406 0.45112 0.0
C219 C 0.56692 0.19352 0.47662 0.0
C220 C 0.56832 0.21188 0.47553 0.0
C221 C 0.56059 0.22108 0.49882 0.0
C222 C 0.55326 0.21213 0.52468 0.0
C223 C 0.55327 0.19387 0.52688 0.0
C224 C 0.56008 0.18455 0.50278 0.0
C225 C 0.55889 0.16616 0.50387 0.0
C226 C 0.57621 0.22088 0.45013 0.0
C227 C 0.54544 0.22142 0.54778 0.0
C228 C 0.55996 0.23920 0.49620 0.0
C229 C 0.54067 0.25890 0.48925 0.0
C230 C 0.55517 0.27136 0.49394 0.0
C231 C 0.55281 0.28925 0.49548 0.0
C232 C 0.53596 0.29463 0.49231 0.0
C233 C 0.52147 0.28216 0.48737 0.0
C234 C 0.52383 0.26428 0.48584 0.0
C235 C 0.53365 0.31252 0.49413 0.0
C236 C 0.54818 0.32490 0.49919 0.0
C237 C 0.54566 0.18476 0.55229 0.0
C238 C 0.55260 0.17549 0.59894 0.0
C239 C 0.53508 0.16814 0.60084 0.0
C240 C 0.53000 0.15586 0.62390 0.0
C241 C 0.54246 0.15094 0.64493 0.0
C242 C 0.55996 0.15834 0.64304 0.0
C243 C 0.56504 0.17063 0.62002 0.0
C244 C 0.53748 0.13857 0.66785 0.0
C245 C 0.55007 0.13364 0.68861 0.0
O246 O 0.55673 0.18232 0.43368 0.0
O247 O 0.55776 0.18690 0.57557 0.0
O248 O 0.54291 0.24137 0.48867 0.0
H249 H 0.53419 0.13781 0.32134 0.0
H250 H 0.57293 0.13337 0.32727 0.0
H251 H 0.58701 0.14959 0.37050 0.0
H252 H 0.58510 0.16906 0.41454 0.0
H253 H 0.53107 0.17101 0.39684 0.0
H254 H 0.53298 0.15158 0.35285 0.0
H255 H 0.58203 0.19096 0.43922 0.0
H256 H 0.57509 0.17184 0.45790 0.0
H257 H 0.55080 0.16167 0.52198 0.0
H258 H 0.57130 0.16213 0.50701 0.0
H259 H 0.55363 0.16109 0.48337 0.0
H260 H 0.57624 0.21238 0.43156 0.0
H261 H 0.58906 0.22551 0.45565 0.0
H262 H 0.56934 0.23141 0.44445 0.0
H263 H 0.53997 0.21270 0.56430 0.0
H264 H 0.53568 0.22810 0.53811 0.0
H265 H 0.55483 0.23038 0.55787 0.0
H266 H 0.56322 0.24523 0.51707 0.0
H267 H 0.56845 0.24438 0.47910 0.0
H268 H 0.56763 0.26734 0.49641 0.0
H269 H 0.56353 0.29850 0.49902 0.0
H270 H 0.50901 0.28617 0.48492 0.0
H271 H 0.51312 0.25501 0.48231 0.0
H272 H 0.52120 0.31658 0.49177 0.0
H273 H 0.56061 0.32080 0.50153 0.0
H274 H 0.53408 0.18967 0.55880 0.0
H275 H 0.54320 0.17152 0.54688 0.0
H276 H 0.52593 0.17170 0.58508 0.0
H277 H 0.51704 0.15037 0.62534 0.0
H278 H 0.56916 0.15467 0.65863 0.0
H279 H 0.57801 0.17605 0.61846 0.0
H280 H 0.52453 0.13304 0.66943 0.0
H281 H 0.56300 0.13918 0.68694 0.0
C282 C 0.88808 0.47523 0.68461 0.0
C283 C 0.88323 0.46014 0.66707 0.0
C284 C 0.87208 0.46111 0.64173 0.0
C285 C 0.86708 0.44611 0.62402 0.0
C286 C 0.85588 0.44720 0.59874 0.0
C287 C 0.84971 0.46326 0.59129 0.0
C288 C 0.85476 0.47825 0.60892 0.0
C289 C 0.86593 0.47717 0.63416 0.0
C290 C 0.83717 0.44946 0.54900 0.0
C291 C 0.82771 0.45430 0.52350 0.0
C292 C 0.80935 0.45290 0.52458 0.0
C293 C 0.80015 0.46062 0.50130 0.0
C294 C 0.80909 0.46795 0.47544 0.0
C295 C 0.82736 0.46795 0.47324 0.0
C296 C 0.83668 0.46114 0.49733 0.0
C297 C 0.85507 0.46233 0.49624 0.0
C298 C 0.80035 0.44501 0.54999 0.0
C299 C 0.79980 0.47577 0.45233 0.0
C300 C 0.78203 0.46124 0.50392 0.0
C301 C 0.76233 0.48053 0.51087 0.0
C302 C 0.74987 0.46603 0.50617 0.0
C303 C 0.73198 0.46839 0.50464 0.0
C304 C 0.72659 0.48524 0.50781 0.0
C305 C 0.73906 0.49973 0.51275 0.0
C306 C 0.75695 0.49737 0.51427 0.0
C307 C 0.70871 0.48755 0.50599 0.0
C308 C 0.69633 0.47301 0.50093 0.0
C309 C 0.83647 0.47556 0.44783 0.0
C310 C 0.84574 0.46862 0.40118 0.0
C311 C 0.85309 0.48614 0.39928 0.0
C312 C 0.86536 0.49123 0.37622 0.0
C313 C 0.87028 0.47877 0.35519 0.0
C314 C 0.86289 0.46126 0.35708 0.0
C315 C 0.85060 0.45618 0.38010 0.0
C316 C 0.88266 0.48375 0.33226 0.0
C317 C 0.88759 0.47116 0.31151 0.0
O318 O 0.83891 0.46449 0.56643 0.0
O319 O 0.83433 0.46346 0.42454 0.0
O320 O 0.77986 0.47830 0.51145 0.0
H321 H 0.88342 0.48704 0.67877 0.0
H322 H 0.88786 0.44830 0.67284 0.0
H323 H 0.87164 0.43422 0.62961 0.0
H324 H 0.85218 0.43613 0.58557 0.0
H325 H 0.85021 0.49015 0.60327 0.0
H326 H 0.86965 0.48825 0.64727 0.0
H327 H 0.83027 0.43919 0.56090 0.0
H328 H 0.84939 0.44613 0.54221 0.0
H329 H 0.85955 0.47042 0.47813 0.0
H330 H 0.85910 0.44992 0.49310 0.0
H331 H 0.86014 0.46759 0.51675 0.0
H332 H 0.80886 0.44497 0.56856 0.0
H333 H 0.79573 0.43215 0.54446 0.0
H334 H 0.78982 0.45187 0.55567 0.0
H335 H 0.80853 0.48124 0.43582 0.0
H336 H 0.79313 0.48553 0.46201 0.0
H337 H 0.79085 0.46638 0.44224 0.0
H338 H 0.77600 0.45798 0.48304 0.0
H339 H 0.77685 0.45276 0.52102 0.0
H340 H 0.75390 0.45357 0.50371 0.0
H341 H 0.72273 0.45767 0.50110 0.0
H342 H 0.73505 0.51219 0.51520 0.0
H343 H 0.76621 0.50809 0.51781 0.0
H344 H 0.70464 0.49999 0.50834 0.0
H345 H 0.70043 0.46058 0.49859 0.0
H346 H 0.83156 0.48714 0.44131 0.0
H347 H 0.84970 0.47803 0.45324 0.0
H348 H 0.84952 0.49530 0.41503 0.0
H349 H 0.87085 0.50419 0.37477 0.0
H350 H 0.86656 0.45206 0.34148 0.0
H351 H 0.84519 0.44321 0.38166 0.0
H352 H 0.88818 0.49670 0.33068 0.0
H353 H 0.88205 0.45823 0.31317 0.0
C354 C 0.47516 0.88683 0.68461 0.0
C355 C 0.49025 0.88514 0.66702 0.0
C356 C 0.48928 0.87380 0.64168 0.0
C357 C 0.50427 0.87194 0.62393 0.0
C358 C 0.50318 0.86051 0.59865 0.0
C359 C 0.48711 0.85097 0.59125 0.0
C360 C 0.47213 0.85287 0.60894 0.0
C361 C 0.47321 0.86428 0.63417 0.0
C362 C 0.50091 0.84132 0.54892 0.0
C363 C 0.49607 0.83085 0.52343 0.0
C364 C 0.49747 0.81278 0.52451 0.0
C365 C 0.48975 0.80196 0.50125 0.0
C366 C 0.48242 0.80937 0.47541 0.0
C367 C 0.48243 0.82764 0.47321 0.0
C368 C 0.48924 0.83839 0.49729 0.0
C369 C 0.48805 0.85653 0.49620 0.0
C370 C 0.50536 0.80544 0.54989 0.0
C371 C 0.47460 0.79844 0.45234 0.0
C372 C 0.48912 0.78371 0.50387 0.0
C373 C 0.46983 0.75996 0.51089 0.0
C374 C 0.48433 0.75055 0.50615 0.0
C375 C 0.48197 0.73217 0.50462 0.0
C376 C 0.46512 0.72324 0.50785 0.0
C377 C 0.45063 0.73267 0.51283 0.0
C378 C 0.45299 0.75105 0.51435 0.0
C379 C 0.46280 0.70487 0.50603 0.0
C380 C 0.47734 0.69554 0.50092 0.0
C381 C 0.47482 0.83515 0.44783 0.0
C382 C 0.48176 0.84587 0.40116 0.0
C383 C 0.46424 0.84955 0.39931 0.0
C384 C 0.45915 0.86076 0.37627 0.0
C385 C 0.47161 0.86829 0.35520 0.0
C386 C 0.48912 0.86457 0.35704 0.0
C387 C 0.49420 0.85334 0.38004 0.0
C388 C 0.46664 0.87963 0.33229 0.0
C389 C 0.47923 0.88720 0.31150 0.0
O390 O 0.48589 0.83991 0.56640 0.0
O391 O 0.48692 0.83555 0.42451 0.0
O392 O 0.47207 0.77797 0.51146 0.0
H393 H 0.46334 0.87969 0.67881 0.0
H394 H 0.50209 0.89226 0.67275 0.0
H395 H 0.51616 0.87899 0.62948 0.0
H396 H 0.51425 0.85913 0.58545 0.0
H397 H 0.46023 0.84584 0.60333 0.0
H398 H 0.46213 0.86567 0.64731 0.0
H399 H 0.51119 0.83658 0.56078 0.0
H400 H 0.50425 0.85424 0.54212 0.0
H401 H 0.47996 0.85931 0.47812 0.0
H402 H 0.50046 0.86316 0.49302 0.0
H403 H 0.48279 0.86049 0.51672 0.0
H404 H 0.50540 0.81395 0.56846 0.0
H405 H 0.51822 0.80351 0.54432 0.0
H406 H 0.49850 0.79347 0.55560 0.0
H407 H 0.46913 0.80602 0.43584 0.0
H408 H 0.46484 0.78972 0.46204 0.0
H409 H 0.48399 0.79146 0.44222 0.0
H410 H 0.49238 0.77837 0.48299 0.0
H411 H 0.49761 0.78031 0.52094 0.0
H412 H 0.49679 0.75718 0.50364 0.0
H413 H 0.49269 0.72516 0.50104 0.0
H414 H 0.43816 0.72605 0.51532 0.0
H415 H 0.44227 0.75807 0.51792 0.0
H416 H 0.45035 0.69819 0.50843 0.0
H417 H 0.48977 0.70225 0.49854 0.0
H418 H 0.46324 0.82781 0.44135 0.0
H419 H 0.47235 0.84787 0.45325 0.0
H420 H 0.45508 0.84406 0.41510 0.0
H421 H 0.44619 0.86354 0.37487 0.0
H422 H 0.49832 0.87017 0.34141 0.0
H423 H 0.50717 0.85065 0.38156 0.0
H424 H 0.45369 0.88243 0.33075 0.0
H425 H 0.49216 0.88436 0.31312 0.0
C426 C 0.43433 0.52010 0.50027 0.0
C427 C 0.41704 0.52460 0.50028 0.0
C428 C 0.39975 0.52910 0.50029 0.0
C429 C 0.38249 0.53365 0.50033 0.0
C430 C 0.36523 0.53828 0.50040 0.0
C431 C 0.34801 0.54294 0.50050 0.0
C432 C 0.52122 0.43320 0.50028 0.0
C433 C 0.52572 0.41592 0.50032 0.0
C434 C 0.53023 0.39862 0.50035 0.0
C435 C 0.53477 0.38136 0.50040 0.0
C436 C 0.53940 0.36411 0.50045 0.0
C437 C 0.54407 0.34689 0.50051 0.0
C438 C 0.58803 0.49999 0.49980 0.0
C439 C 0.60530 0.49547 0.49967 0.0
C440 C 0.62259 0.49094 0.49954 0.0
C441 C 0.63985 0.48638 0.49946 0.0
C442 C 0.65710 0.48176 0.49948 0.0
C443 C 0.67433 0.47711 0.49954 0.0
C444 C 0.50113 0.58690 0.49984 0.0
C445 C 0.49663 0.60418 0.49978 0.0
C446 C 0.49212 0.62148 0.49972 0.0
C447 C 0.48757 0.63874 0.49967 0.0
C448 C 0.48294 0.65599 0.49963 0.0
C449 C 0.47827 0.67321 0.49959 0.0
C450 C 0.09180 0.53807 0.74279 0.0
C451 C 0.09983 0.53567 0.77120 0.0
C452 C 0.11820 0.53715 0.77338 0.0
C453 C 0.12854 0.54102 0.74716 0.0
C454 C 0.05873 0.52017 0.87641 0.0
C455 C 0.10214 0.54195 0.71656 0.0
C456 C 0.08952 0.53179 0.79745 0.0
C457 C 0.07923 0.52792 0.82374 0.0
C458 C 0.06897 0.52404 0.85007 0.0
C459 C 0.12051 0.54342 0.71874 0.0
H460 H 0.07820 0.53698 0.74117 0.0
H461 H 0.12415 0.53537 0.79441 0.0
H462 H 0.14213 0.54212 0.74878 0.0
H463 H 0.09619 0.54372 0.69553 0.0
C464 C 0.55438 0.10238 0.76141 0.0
C465 C 0.53695 0.09881 0.77140 0.0
C466 C 0.52335 0.10554 0.75509 0.0
C467 C 0.52717 0.11583 0.72880 0.0
C468 C 0.52136 0.05764 0.87650 0.0
C469 C 0.55820 0.11268 0.73512 0.0
C470 C 0.53310 0.08851 0.79768 0.0
C471 C 0.52922 0.07822 0.82396 0.0
C472 C 0.52530 0.06793 0.85023 0.0
C473 C 0.54460 0.11941 0.71882 0.0
H474 H 0.56444 0.09740 0.77348 0.0
H475 H 0.51045 0.10290 0.76249 0.0
H476 H 0.51710 0.12081 0.71674 0.0
H477 H 0.57110 0.11532 0.72773 0.0
C478 C 0.90394 0.48199 0.22639 0.0
C479 C 0.92230 0.48444 0.22870 0.0
C480 C 0.93040 0.48301 0.25734 0.0
C481 C 0.92016 0.47912 0.28366 0.0
C482 C 0.96356 0.49999 0.12369 0.0
C483 C 0.89369 0.47811 0.25272 0.0
C484 C 0.93257 0.48833 0.20240 0.0
C485 C 0.94288 0.49222 0.17614 0.0
C486 C 0.95321 0.49610 0.14990 0.0
C487 C 0.90180 0.47667 0.28136 0.0
H488 H 0.89794 0.48306 0.20519 0.0
H489 H 0.94400 0.48482 0.25906 0.0
H490 H 0.92616 0.47805 0.30486 0.0
H491 H 0.88010 0.47629 0.25101 0.0
C492 C 0.46811 0.91815 0.23923 0.0
C493 C 0.48548 0.92131 0.22877 0.0
C494 C 0.49901 0.91417 0.24459 0.0
C495 C 0.49518 0.90387 0.27087 0.0
C496 C 0.50112 0.96247 0.12367 0.0
C497 C 0.46428 0.90785 0.26551 0.0
C498 C 0.48934 0.93161 0.20249 0.0
C499 C 0.49324 0.94190 0.17622 0.0
C500 C 0.49717 0.95218 0.14994 0.0
C501 C 0.47781 0.90071 0.28134 0.0
H502 H 0.45809 0.92344 0.22752 0.0
H503 H 0.51187 0.91650 0.23686 0.0
H504 H 0.50520 0.89858 0.28257 0.0
H505 H 0.45142 0.90552 0.27326 0.0
C506 C 0.52526 0.11140 0.24074 0.0
C507 C 0.53676 0.09940 0.23106 0.0
C508 C 0.55216 0.09765 0.24768 0.0
C509 C 0.55606 0.10788 0.27398 0.0
C510 C 0.52142 0.05833 0.12593 0.0
C511 C 0.52916 0.12163 0.26704 0.0
C512 C 0.53289 0.08916 0.20477 0.0
C513 C 0.52904 0.07890 0.17848 0.0
C514 C 0.52522 0.06862 0.15221 0.0
C515 C 0.54456 0.11987 0.28366 0.0
H516 H 0.51386 0.11270 0.22844 0.0
H517 H 0.56068 0.08877 0.24052 0.0
H518 H 0.56746 0.10657 0.28629 0.0
H519 H 0.52065 0.13051 0.27421 0.0
C520 C 0.11893 0.53841 0.22857 0.0
C521 C 0.10057 0.53572 0.23093 0.0
C522 C 0.09244 0.53689 0.25962 0.0
C523 C 0.10265 0.54075 0.28595 0.0
C524 C 0.05947 0.52029 0.12587 0.0
C525 C 0.12914 0.54227 0.25491 0.0
C526 C 0.09034 0.53186 0.20461 0.0
C527 C 0.08007 0.52801 0.17834 0.0
C528 C 0.06978 0.52415 0.15209 0.0
C529 C 0.12100 0.54344 0.28360 0.0
H530 H 0.12495 0.53755 0.20733 0.0
H531 H 0.07886 0.53490 0.26137 0.0
H532 H 0.09662 0.54161 0.30719 0.0
H533 H 0.14272 0.54426 0.25317 0.0
C534 C 0.92824 0.47432 0.74520 0.0
C535 C 0.92198 0.48433 0.76898 0.0
C536 C 0.90543 0.49050 0.76650 0.0
C537 C 0.89513 0.48665 0.74025 0.0
C538 C 0.96293 0.49985 0.87419 0.0
C539 C 0.91795 0.47048 0.71895 0.0
C540 C 0.93225 0.48819 0.79524 0.0
C541 C 0.94250 0.49206 0.82153 0.0
C542 C 0.95272 0.49595 0.84785 0.0
C543 C 0.90139 0.47664 0.71648 0.0
H544 H 0.94049 0.46975 0.74703 0.0
H545 H 0.90079 0.49791 0.78409 0.0
H546 H 0.88288 0.49122 0.73843 0.0
H547 H 0.92258 0.46307 0.70135 0.0
C548 C 0.46796 0.91482 0.76194 0.0
C549 C 0.48543 0.92076 0.76912 0.0
C550 C 0.49908 0.91643 0.74999 0.0
C551 C 0.49526 0.90619 0.72368 0.0
C552 C 0.50100 0.96178 0.87422 0.0
C553 C 0.46415 0.90457 0.73563 0.0
C554 C 0.48928 0.93101 0.79541 0.0
C555 C 0.49316 0.94126 0.82170 0.0
C556 C 0.49707 0.95152 0.84796 0.0
C557 C 0.47780 0.90025 0.71650 0.0
H558 H 0.45786 0.91802 0.77611 0.0
H559 H 0.51201 0.92082 0.75530 0.0
H560 H 0.50537 0.90299 0.70952 0.0
H561 H 0.45122 0.90018 0.73032 0.0
