data_{}
_symmetry_space_group_name_H-M    P1
_symmetry_Int_Tables_number       1
_symmetry_cell_setting            triclinic
loop_
_symmetry_equiv_pos_as_xyz
'x, y, z'
_cell_length_a     82.356
_cell_length_b     82.355
_cell_length_c     39.165
_cell_angle_alpha  89.887
_cell_angle_beta   90.356
_cell_angle_gamma  80.849
loop_
_atom_site_label
_atom_site_type_symbol
_atom_site_fract_x
_atom_site_fract_y
_atom_site_fract_z
_atom_type_partial_charge
Mg0 Mg 0.00838 0.50475 0.00010 0.0
C1 C 0.99004 0.49089 0.06302 0.0
C2 C 0.02672 0.51860 0.93733 0.0
O3 O 0.02578 0.50692 0.03817 0.0
O4 O 0.01481 0.51692 0.08734 0.0
O5 O 0.99442 0.49248 0.03312 0.0
O6 O 0.99569 0.49738 0.08913 0.0
O7 O 0.99099 0.50257 0.96218 0.0
O8 O 0.00195 0.49257 0.91301 0.0
O9 O 0.02234 0.51702 0.96723 0.0
C10 C 0.02559 0.51617 0.06296 0.0
C11 C 0.99117 0.49333 0.93740 0.0
O12 O 0.02108 0.51212 0.91123 0.0
Mg13 Mg 0.50839 0.00474 0.00010 0.0
C14 C 0.51332 0.02818 0.06313 0.0
C15 C 0.50346 0.98130 0.93723 0.0
O16 O 0.49723 0.99247 0.03789 0.0
O17 O 0.51102 0.98994 0.08743 0.0
O18 O 0.51111 0.02414 0.03317 0.0
O19 O 0.51312 0.01898 0.08924 0.0
O20 O 0.51955 0.01702 0.96246 0.0
O21 O 0.50576 0.01954 0.91292 0.0
O22 O 0.50567 0.98534 0.96718 0.0
C23 C 0.50285 0.98422 0.06283 0.0
C24 C 0.51393 0.02526 0.93752 0.0
O25 O 0.50366 0.99050 0.91112 0.0
C26 C 0.50225 0.49861 0.50021 0.0
C27 C 0.51452 0.51088 0.50014 0.0
C28 C 0.50804 0.52947 0.49998 0.0
C29 C 0.53311 0.50440 0.50023 0.0
C30 C 0.50873 0.48001 0.50036 0.0
C31 C 0.48365 0.50509 0.50011 0.0
C32 C 0.50403 0.53872 0.46609 0.0
C33 C 0.49892 0.55739 0.46594 0.0
C34 C 0.49507 0.56666 0.49967 0.0
C35 C 0.49908 0.55741 0.53355 0.0
C36 C 0.50420 0.53874 0.53371 0.0
C37 C 0.54229 0.50046 0.46647 0.0
C38 C 0.56096 0.49534 0.46656 0.0
C39 C 0.57030 0.49143 0.50042 0.0
C40 C 0.56112 0.49537 0.53418 0.0
C41 C 0.54245 0.50049 0.53409 0.0
C42 C 0.51273 0.47077 0.53426 0.0
C43 C 0.51785 0.45210 0.53441 0.0
C44 C 0.52169 0.44283 0.50068 0.0
C45 C 0.51769 0.45207 0.46679 0.0
C46 C 0.51257 0.47074 0.46664 0.0
C47 C 0.47448 0.50903 0.53387 0.0
C48 C 0.45581 0.51415 0.53379 0.0
C49 C 0.44647 0.51805 0.49993 0.0
C50 C 0.45565 0.51412 0.46617 0.0
C51 C 0.47432 0.50900 0.46625 0.0
H52 H 0.50489 0.53162 0.44103 0.0
H53 H 0.49794 0.56446 0.44076 0.0
H54 H 0.49823 0.56448 0.55864 0.0
H55 H 0.50517 0.53167 0.55888 0.0
H56 H 0.53515 0.50136 0.44133 0.0
H57 H 0.56798 0.49442 0.44146 0.0
H58 H 0.53543 0.50141 0.55919 0.0
H59 H 0.51188 0.47786 0.55932 0.0
H60 H 0.51882 0.44503 0.55958 0.0
H61 H 0.51854 0.44500 0.44170 0.0
H62 H 0.51160 0.47781 0.44146 0.0
H63 H 0.48162 0.50812 0.55901 0.0
H64 H 0.44878 0.51507 0.55888 0.0
H65 H 0.44853 0.51501 0.44100 0.0
H66 H 0.48134 0.50807 0.44116 0.0
H67 H 0.56824 0.49448 0.55935 0.0
C68 C 0.11854 0.58389 0.27201 0.0
C69 C 0.12439 0.56838 0.29357 0.0
C70 C 0.13577 0.56937 0.32457 0.0
C71 C 0.14176 0.55395 0.34634 0.0
C72 C 0.15319 0.55507 0.37725 0.0
C73 C 0.15860 0.57159 0.38628 0.0
C74 C 0.15256 0.58701 0.36460 0.0
C75 C 0.14116 0.58589 0.33373 0.0
C76 C 0.17228 0.55740 0.43808 0.0
C77 C 0.18172 0.56237 0.46923 0.0
C78 C 0.20054 0.56093 0.46805 0.0
C79 C 0.20955 0.56887 0.49647 0.0
C80 C 0.20006 0.57641 0.52792 0.0
C81 C 0.18142 0.57641 0.53048 0.0
C82 C 0.17223 0.56940 0.50105 0.0
C83 C 0.15339 0.57063 0.50225 0.0
C84 C 0.21011 0.55282 0.43716 0.0
C85 C 0.20915 0.58446 0.55612 0.0
C86 C 0.22801 0.56952 0.49339 0.0
C87 C 0.24702 0.58936 0.48489 0.0
C88 C 0.26056 0.57444 0.49082 0.0
C89 C 0.27870 0.57686 0.49280 0.0
C90 C 0.28324 0.59419 0.48884 0.0
C91 C 0.26968 0.60909 0.48261 0.0
C92 C 0.25155 0.60667 0.48065 0.0
C93 C 0.30137 0.59657 0.49116 0.0
C94 C 0.31485 0.58162 0.49754 0.0
C95 C 0.17175 0.58423 0.56137 0.0
C96 C 0.16278 0.57710 0.61829 0.0
C97 C 0.15429 0.59512 0.62043 0.0
C98 C 0.14152 0.60035 0.64845 0.0
C99 C 0.13725 0.58754 0.67418 0.0
C100 C 0.14578 0.56953 0.67206 0.0
C101 C 0.15856 0.56431 0.64408 0.0
C102 C 0.12438 0.59265 0.70204 0.0
C103 C 0.12011 0.57971 0.72743 0.0
O104 O 0.16961 0.57285 0.41668 0.0
O105 O 0.17466 0.57179 0.58989 0.0
O106 O 0.22924 0.58705 0.48408 0.0
H107 H 0.12265 0.59604 0.27908 0.0
H108 H 0.12031 0.55620 0.28659 0.0
H109 H 0.13776 0.54172 0.33957 0.0
H110 H 0.15762 0.54368 0.39344 0.0
H111 H 0.15654 0.59924 0.37143 0.0
H112 H 0.13671 0.59729 0.31762 0.0
H113 H 0.17987 0.54683 0.42368 0.0
H114 H 0.16000 0.55397 0.44631 0.0
H115 H 0.14840 0.57895 0.52426 0.0
H116 H 0.14998 0.55787 0.50615 0.0
H117 H 0.14788 0.57604 0.47715 0.0
H118 H 0.20139 0.55278 0.41444 0.0
H119 H 0.21557 0.53960 0.44404 0.0
H120 H 0.22047 0.55988 0.43024 0.0
H121 H 0.19998 0.59008 0.57617 0.0
H122 H 0.21540 0.59449 0.54428 0.0
H123 H 0.21885 0.57479 0.56857 0.0
H124 H 0.23439 0.56617 0.51894 0.0
H125 H 0.23374 0.56079 0.47262 0.0
H126 H 0.25716 0.56163 0.49390 0.0
H127 H 0.28875 0.56584 0.49727 0.0
H128 H 0.27306 0.62191 0.47956 0.0
H129 H 0.24148 0.61769 0.47619 0.0
H130 H 0.30482 0.60937 0.48822 0.0
H131 H 0.31137 0.56884 0.50046 0.0
H132 H 0.17612 0.59614 0.56926 0.0
H133 H 0.15808 0.58677 0.55465 0.0
H134 H 0.15738 0.60453 0.60115 0.0
H135 H 0.13518 0.61368 0.65008 0.0
H136 H 0.14259 0.56007 0.69114 0.0
H137 H 0.16482 0.55097 0.64232 0.0
H138 H 0.11802 0.60597 0.70383 0.0
H139 H 0.12649 0.56641 0.72554 0.0
C140 C 0.58627 0.11559 0.27654 0.0
C141 C 0.60179 0.11645 0.29820 0.0
C142 C 0.60079 0.12808 0.32910 0.0
C143 C 0.61621 0.12913 0.35095 0.0
C144 C 0.61509 0.14084 0.38177 0.0
C145 C 0.59857 0.15149 0.39061 0.0
C146 C 0.58316 0.15040 0.36884 0.0
C147 C 0.58427 0.13871 0.33807 0.0
C148 C 0.61276 0.16054 0.44243 0.0
C149 C 0.60779 0.17150 0.47347 0.0
C150 C 0.60923 0.18986 0.47215 0.0
C151 C 0.60129 0.20134 0.50043 0.0
C152 C 0.59375 0.19418 0.53189 0.0
C153 C 0.59376 0.17553 0.53459 0.0
C154 C 0.60076 0.16418 0.50530 0.0
C155 C 0.59953 0.14573 0.50663 0.0
C156 C 0.61734 0.19692 0.44126 0.0
C157 C 0.58570 0.20577 0.55995 0.0
C158 C 0.60064 0.22001 0.49720 0.0
C159 C 0.58080 0.24535 0.48839 0.0
C160 C 0.59572 0.25414 0.49434 0.0
C161 C 0.59330 0.27304 0.49616 0.0
C162 C 0.57597 0.28310 0.49201 0.0
C163 C 0.56107 0.27429 0.48576 0.0
C164 C 0.56349 0.25540 0.48396 0.0
C165 C 0.57359 0.30199 0.49418 0.0
C166 C 0.58854 0.31069 0.50058 0.0
C167 C 0.58593 0.16828 0.56549 0.0
C168 C 0.59306 0.15692 0.62254 0.0
C169 C 0.57505 0.15416 0.62459 0.0
C170 C 0.56981 0.14299 0.65266 0.0
C171 C 0.58263 0.13459 0.67854 0.0
C172 C 0.60063 0.13740 0.67650 0.0
C173 C 0.60585 0.14858 0.64848 0.0
C174 C 0.57751 0.12329 0.70645 0.0
C175 C 0.59045 0.11484 0.73199 0.0
O176 O 0.59731 0.16284 0.42091 0.0
O177 O 0.59837 0.16718 0.59410 0.0
O178 O 0.58311 0.22684 0.48774 0.0
H179 H 0.57412 0.12354 0.28348 0.0
H180 H 0.61396 0.10852 0.29135 0.0
H181 H 0.62844 0.12125 0.34432 0.0
H182 H 0.62648 0.14162 0.39802 0.0
H183 H 0.57092 0.15825 0.37554 0.0
H184 H 0.57288 0.13791 0.32190 0.0
H185 H 0.62333 0.16481 0.42806 0.0
H186 H 0.61619 0.14716 0.45078 0.0
H187 H 0.59121 0.14333 0.52860 0.0
H188 H 0.61229 0.13825 0.51067 0.0
H189 H 0.59412 0.14199 0.48152 0.0
H190 H 0.61738 0.18824 0.41861 0.0
H191 H 0.63056 0.19816 0.44821 0.0
H192 H 0.61028 0.20953 0.43420 0.0
H193 H 0.58008 0.19834 0.58003 0.0
H194 H 0.57567 0.21523 0.54797 0.0
H195 H 0.59537 0.21237 0.57241 0.0
H196 H 0.60400 0.22527 0.52273 0.0
H197 H 0.60937 0.22301 0.47647 0.0
H198 H 0.60853 0.24666 0.49756 0.0
H199 H 0.60432 0.27958 0.50065 0.0
H200 H 0.54825 0.28176 0.48257 0.0
H201 H 0.55247 0.24884 0.47948 0.0
H202 H 0.56079 0.30951 0.49110 0.0
H203 H 0.60132 0.30314 0.50364 0.0
H204 H 0.57402 0.17642 0.57324 0.0
H205 H 0.58339 0.15544 0.55886 0.0
H206 H 0.56563 0.16028 0.60521 0.0
H207 H 0.55649 0.14089 0.65422 0.0
H208 H 0.61009 0.13116 0.69569 0.0
H209 H 0.61919 0.15060 0.64678 0.0
H210 H 0.56419 0.12116 0.70817 0.0
H211 H 0.60376 0.11700 0.73016 0.0
C212 C 0.89802 0.42687 0.72833 0.0
C213 C 0.89711 0.41136 0.70696 0.0
C214 C 0.88542 0.41235 0.67595 0.0
C215 C 0.88433 0.39693 0.65438 0.0
C216 C 0.87255 0.39805 0.62345 0.0
C217 C 0.86188 0.41457 0.61422 0.0
C218 C 0.86301 0.42999 0.63571 0.0
C219 C 0.87477 0.42887 0.66659 0.0
C220 C 0.85271 0.40038 0.56259 0.0
C221 C 0.84169 0.40536 0.53138 0.0
C222 C 0.82333 0.40391 0.53258 0.0
C223 C 0.81179 0.41185 0.50406 0.0
C224 C 0.81889 0.41939 0.47252 0.0
C225 C 0.83753 0.41939 0.46996 0.0
C226 C 0.84894 0.41238 0.49947 0.0
C227 C 0.86739 0.41361 0.49826 0.0
C228 C 0.81634 0.39580 0.56357 0.0
C229 C 0.80723 0.42744 0.44422 0.0
C230 C 0.79313 0.41250 0.50713 0.0
C231 C 0.76781 0.43234 0.51539 0.0
C232 C 0.75901 0.41742 0.50964 0.0
C233 C 0.74010 0.41985 0.50764 0.0
C234 C 0.73005 0.43717 0.51138 0.0
C235 C 0.73887 0.45207 0.51742 0.0
C236 C 0.75777 0.44965 0.51941 0.0
C237 C 0.71116 0.43955 0.50902 0.0
C238 C 0.70244 0.42460 0.50283 0.0
C239 C 0.84471 0.42721 0.43897 0.0
C240 C 0.85595 0.42008 0.38214 0.0
C241 C 0.85871 0.43810 0.37978 0.0
C242 C 0.86981 0.44333 0.35169 0.0
C243 C 0.87816 0.43052 0.32612 0.0
C244 C 0.87535 0.41251 0.32847 0.0
C245 C 0.86423 0.40729 0.35651 0.0
C246 C 0.88940 0.43564 0.29820 0.0
C247 C 0.89779 0.42269 0.27296 0.0
O248 O 0.85047 0.41583 0.58381 0.0
O249 O 0.84575 0.41477 0.41060 0.0
O250 O 0.78632 0.43004 0.51622 0.0
H251 H 0.89005 0.43902 0.72111 0.0
H252 H 0.90506 0.39918 0.71410 0.0
H253 H 0.89222 0.38470 0.66130 0.0
H254 H 0.87173 0.38666 0.60741 0.0
H255 H 0.85514 0.44222 0.62872 0.0
H256 H 0.87560 0.44027 0.68256 0.0
H257 H 0.84848 0.38981 0.57713 0.0
H258 H 0.86608 0.39695 0.55441 0.0
H259 H 0.86974 0.42193 0.47615 0.0
H260 H 0.87486 0.40085 0.49452 0.0
H261 H 0.87119 0.41902 0.52330 0.0
H262 H 0.82507 0.39576 0.58629 0.0
H263 H 0.81508 0.38258 0.55686 0.0
H264 H 0.80374 0.40286 0.57040 0.0
H265 H 0.81462 0.43306 0.42409 0.0
H266 H 0.79779 0.43748 0.45593 0.0
H267 H 0.80061 0.41778 0.43189 0.0
H268 H 0.78781 0.40915 0.48163 0.0
H269 H 0.79018 0.40377 0.52801 0.0
H270 H 0.76648 0.40461 0.50672 0.0
H271 H 0.73355 0.40882 0.50330 0.0
H272 H 0.73141 0.46489 0.52031 0.0
H273 H 0.76434 0.46067 0.52373 0.0
H274 H 0.70364 0.45235 0.51180 0.0
H275 H 0.70999 0.41182 0.50007 0.0
H276 H 0.83655 0.43912 0.43093 0.0
H277 H 0.85757 0.42975 0.44566 0.0
H278 H 0.85262 0.44751 0.39893 0.0
H279 H 0.87191 0.45666 0.34990 0.0
H280 H 0.88155 0.40305 0.30950 0.0
H281 H 0.86222 0.39395 0.35844 0.0
H282 H 0.89152 0.44895 0.29624 0.0
H283 H 0.89563 0.40939 0.27502 0.0
C284 C 0.42924 0.89410 0.72380 0.0
C285 C 0.44475 0.88830 0.70257 0.0
C286 C 0.44376 0.87699 0.67164 0.0
C287 C 0.45918 0.87104 0.65021 0.0
C288 C 0.45806 0.85968 0.61936 0.0
C289 C 0.44154 0.85429 0.61007 0.0
C290 C 0.42612 0.86028 0.63142 0.0
C291 C 0.42724 0.87161 0.66222 0.0
C292 C 0.45573 0.84072 0.55864 0.0
C293 C 0.45075 0.83135 0.52747 0.0
C294 C 0.45220 0.81252 0.52882 0.0
C295 C 0.44425 0.80357 0.50032 0.0
C296 C 0.43672 0.81313 0.46866 0.0
C297 C 0.43672 0.83178 0.46596 0.0
C298 C 0.44372 0.84090 0.49544 0.0
C299 C 0.44250 0.85974 0.49408 0.0
C300 C 0.46031 0.80288 0.55993 0.0
C301 C 0.42867 0.80410 0.44038 0.0
C302 C 0.44361 0.78511 0.50353 0.0
C303 C 0.42377 0.76608 0.51180 0.0
C304 C 0.43868 0.75254 0.50626 0.0
C305 C 0.43626 0.73442 0.50438 0.0
C306 C 0.41893 0.72986 0.50805 0.0
C307 C 0.40403 0.74341 0.51389 0.0
C308 C 0.40646 0.76154 0.51576 0.0
C309 C 0.41655 0.71174 0.50581 0.0
C310 C 0.43150 0.69827 0.49982 0.0
C311 C 0.42889 0.84152 0.43484 0.0
C312 C 0.43603 0.85061 0.37799 0.0
C313 C 0.41801 0.85910 0.37545 0.0
C314 C 0.41278 0.87193 0.34723 0.0
C315 C 0.42559 0.87626 0.32170 0.0
C316 C 0.44360 0.86772 0.32423 0.0
C317 C 0.44882 0.85488 0.35240 0.0
C318 C 0.42047 0.88918 0.29365 0.0
C319 C 0.43342 0.89351 0.26847 0.0
O320 O 0.44028 0.84334 0.57973 0.0
O321 O 0.44134 0.83866 0.40658 0.0
O322 O 0.42607 0.78385 0.51252 0.0
H323 H 0.41709 0.89001 0.71653 0.0
H324 H 0.45693 0.89236 0.70976 0.0
H325 H 0.47141 0.87502 0.65718 0.0
H326 H 0.46944 0.85527 0.60342 0.0
H327 H 0.41389 0.85632 0.62438 0.0
H328 H 0.41584 0.87603 0.67808 0.0
H329 H 0.46630 0.83309 0.57330 0.0
H330 H 0.45916 0.85301 0.55038 0.0
H331 H 0.43417 0.86478 0.47187 0.0
H332 H 0.45526 0.86316 0.49039 0.0
H333 H 0.43709 0.86520 0.51904 0.0
H334 H 0.46035 0.81155 0.58259 0.0
H335 H 0.47353 0.79744 0.55335 0.0
H336 H 0.45325 0.79251 0.56680 0.0
H337 H 0.42304 0.81332 0.42015 0.0
H338 H 0.41863 0.79783 0.45208 0.0
H339 H 0.43833 0.79443 0.42819 0.0
H340 H 0.44696 0.77878 0.47810 0.0
H341 H 0.45234 0.77933 0.52450 0.0
H342 H 0.45149 0.75595 0.50339 0.0
H343 H 0.44728 0.72437 0.50019 0.0
H344 H 0.39121 0.74002 0.51673 0.0
H345 H 0.39543 0.77160 0.51993 0.0
H346 H 0.40375 0.70829 0.50854 0.0
H347 H 0.44429 0.70176 0.49711 0.0
H348 H 0.41698 0.83716 0.42676 0.0
H349 H 0.42636 0.85517 0.44141 0.0
H350 H 0.40859 0.85597 0.39457 0.0
H351 H 0.39945 0.87827 0.34530 0.0
H352 H 0.45306 0.87095 0.30531 0.0
H353 H 0.46216 0.84862 0.35447 0.0
H354 H 0.40716 0.89555 0.29157 0.0
H355 H 0.44672 0.88712 0.27066 0.0
H356 H 0.42091 0.51769 0.52277 0.0
H357 H 0.33515 0.56555 0.52229 0.0
H358 H 0.35904 0.58089 0.52226 0.0
H359 H 0.36358 0.54985 0.52245 0.0
H360 H 0.38836 0.56493 0.52243 0.0
H361 H 0.39249 0.53389 0.52261 0.0
H362 H 0.41720 0.54833 0.52259 0.0
H363 H 0.42080 0.51769 0.47695 0.0
H364 H 0.33504 0.56555 0.47647 0.0
H365 H 0.35893 0.58090 0.47645 0.0
H366 H 0.36347 0.54985 0.47663 0.0
H367 H 0.38825 0.56494 0.47661 0.0
H368 H 0.39238 0.53390 0.47679 0.0
H369 H 0.41709 0.54833 0.47677 0.0
C370 C 0.42406 0.52421 0.49983 0.0
C371 C 0.33772 0.57239 0.49935 0.0
C372 C 0.35611 0.57418 0.49939 0.0
C373 C 0.36640 0.55656 0.49951 0.0
C374 C 0.38535 0.55826 0.49955 0.0
C375 C 0.39546 0.54052 0.49967 0.0
C376 C 0.41412 0.54171 0.49971 0.0
H377 H 0.52134 0.41721 0.47788 0.0
H378 H 0.56920 0.33145 0.47900 0.0
H379 H 0.58455 0.35534 0.47909 0.0
H380 H 0.55350 0.35988 0.47863 0.0
H381 H 0.56859 0.38466 0.47871 0.0
H382 H 0.53754 0.38879 0.47826 0.0
H383 H 0.55198 0.41350 0.47833 0.0
H384 H 0.52133 0.41722 0.52370 0.0
H385 H 0.56919 0.33146 0.52482 0.0
H386 H 0.58454 0.35536 0.52491 0.0
H387 H 0.55349 0.35989 0.52445 0.0
H388 H 0.56857 0.38467 0.52453 0.0
H389 H 0.53753 0.38880 0.52407 0.0
H390 H 0.55197 0.41351 0.52414 0.0
C391 C 0.52786 0.42042 0.50086 0.0
C392 C 0.57603 0.33408 0.50199 0.0
C393 C 0.57783 0.35247 0.50192 0.0
C394 C 0.56021 0.36276 0.50162 0.0
C395 C 0.56190 0.38172 0.50154 0.0
C396 C 0.54416 0.39182 0.50124 0.0
C397 C 0.54535 0.41048 0.50116 0.0
H398 H 0.58635 0.47015 0.47770 0.0
H399 H 0.67205 0.42214 0.47818 0.0
H400 H 0.66839 0.45289 0.47795 0.0
H401 H 0.64375 0.43816 0.47802 0.0
H402 H 0.63938 0.46954 0.47778 0.0
H403 H 0.61499 0.45445 0.47786 0.0
H404 H 0.61020 0.48538 0.47762 0.0
H405 H 0.58646 0.47016 0.52352 0.0
H406 H 0.67216 0.42216 0.52400 0.0
H407 H 0.66851 0.45291 0.52377 0.0
H408 H 0.64387 0.43817 0.52384 0.0
H409 H 0.63950 0.46955 0.52360 0.0
H410 H 0.61511 0.45446 0.52367 0.0
H411 H 0.61032 0.48539 0.52344 0.0
C412 C 0.58906 0.47698 0.50056 0.0
C413 C 0.67533 0.42865 0.50105 0.0
C414 C 0.66546 0.44624 0.50090 0.0
C415 C 0.64680 0.44481 0.50088 0.0
C416 C 0.63652 0.46286 0.50074 0.0
C417 C 0.61789 0.46118 0.50072 0.0
C418 C 0.60742 0.47865 0.50058 0.0
H419 H 0.49542 0.59225 0.47659 0.0
H420 H 0.44756 0.67801 0.47547 0.0
H421 H 0.43221 0.65412 0.47553 0.0
H422 H 0.46326 0.64958 0.47584 0.0
H423 H 0.44817 0.62481 0.47590 0.0
H424 H 0.47921 0.62067 0.47622 0.0
H425 H 0.46478 0.59596 0.47628 0.0
H426 H 0.49545 0.59228 0.52240 0.0
H427 H 0.44759 0.67805 0.52129 0.0
H428 H 0.43225 0.65415 0.52134 0.0
H429 H 0.46329 0.64962 0.52166 0.0
H430 H 0.44821 0.62484 0.52172 0.0
H431 H 0.47925 0.62071 0.52203 0.0
H432 H 0.46481 0.59599 0.52209 0.0
C433 C 0.48891 0.58906 0.49946 0.0
C434 C 0.44074 0.67540 0.49834 0.0
C435 C 0.43894 0.65702 0.49847 0.0
C436 C 0.45656 0.64672 0.49871 0.0
C437 C 0.45486 0.62777 0.49884 0.0
C438 C 0.47261 0.61766 0.49909 0.0
C439 C 0.47142 0.59901 0.49922 0.0
C440 C 0.06299 0.54120 0.86536 0.0
N441 N 0.08190 0.53731 0.86564 0.0
N442 N 0.09190 0.54621 0.84070 0.0
C443 C 0.08300 0.55901 0.81545 0.0
N444 N 0.06406 0.56293 0.81512 0.0
N445 N 0.05405 0.55401 0.84010 0.0
C446 C 0.05300 0.53228 0.89035 0.0
C447 C 0.04285 0.52346 0.91518 0.0
C448 C 0.09312 0.56785 0.79062 0.0
C449 C 0.10333 0.57663 0.76586 0.0
C450 C 0.54449 0.05851 0.86907 0.0
N451 N 0.56236 0.05228 0.85845 0.0
N452 N 0.57118 0.06250 0.83379 0.0
C453 C 0.56215 0.07897 0.81973 0.0
N454 N 0.54426 0.08523 0.83033 0.0
N455 N 0.53543 0.07500 0.85502 0.0
C456 C 0.53569 0.04826 0.89376 0.0
C457 C 0.52673 0.03815 0.91842 0.0
C458 C 0.57109 0.08910 0.79508 0.0
C459 C 0.58011 0.09916 0.77045 0.0
C460 C 0.95378 0.46828 0.13495 0.0
N461 N 0.93523 0.47427 0.13931 0.0
N462 N 0.92522 0.46536 0.16422 0.0
C463 C 0.93376 0.45045 0.18481 0.0
N464 N 0.95233 0.44443 0.18050 0.0
N465 N 0.96235 0.45335 0.15556 0.0
C466 C 0.96377 0.47722 0.11001 0.0
C467 C 0.97391 0.48604 0.08518 0.0
C468 C 0.92364 0.44162 0.20967 0.0
C469 C 0.91343 0.43286 0.23448 0.0
C470 C 0.47222 0.95100 0.13123 0.0
N471 N 0.47944 0.94637 0.16693 0.0
N472 N 0.47046 0.93621 0.19143 0.0
C473 C 0.45426 0.93068 0.18026 0.0
N474 N 0.44701 0.93531 0.14451 0.0
N475 N 0.45599 0.94547 0.11998 0.0
C476 C 0.48123 0.96116 0.10674 0.0
C477 C 0.49009 0.97131 0.08199 0.0
C478 C 0.44538 0.92052 0.20496 0.0
C479 C 0.43657 0.91037 0.22981 0.0
C480 C 0.54481 0.05944 0.13565 0.0
N481 N 0.56293 0.05363 0.14549 0.0
N482 N 0.57170 0.06379 0.17053 0.0
C483 C 0.56235 0.07977 0.18576 0.0
N484 N 0.54420 0.08561 0.17596 0.0
N485 N 0.53542 0.07543 0.15089 0.0
C486 C 0.53606 0.04925 0.11060 0.0
C487 C 0.52715 0.03919 0.08558 0.0
C488 C 0.57123 0.08984 0.21079 0.0
C489 C 0.58019 0.09984 0.23580 0.0
C490 C 0.06218 0.54086 0.13200 0.0
N491 N 0.05820 0.55964 0.13637 0.0
N492 N 0.06841 0.56845 0.16123 0.0
C493 C 0.08262 0.55850 0.18174 0.0
N494 N 0.08663 0.53969 0.17740 0.0
N495 N 0.07640 0.53086 0.15252 0.0
C496 C 0.05194 0.53206 0.10711 0.0
C497 C 0.04182 0.52309 0.08231 0.0
C498 C 0.09276 0.56744 0.20653 0.0
C499 C 0.10285 0.57646 0.23127 0.0
C500 C 0.95457 0.46862 0.86842 0.0
N501 N 0.96310 0.45466 0.84560 0.0
N502 N 0.95286 0.44582 0.82085 0.0
C503 C 0.93408 0.45093 0.81891 0.0
N504 N 0.92551 0.46491 0.84173 0.0
N505 N 0.93576 0.47376 0.86650 0.0
C506 C 0.96484 0.47746 0.89317 0.0
C507 C 0.97495 0.48641 0.91802 0.0
C508 C 0.92395 0.44200 0.79406 0.0
C509 C 0.91390 0.43301 0.76916 0.0
C510 C 0.47192 0.95007 0.86474 0.0
N511 N 0.48102 0.94180 0.83357 0.0
N512 N 0.47209 0.93173 0.80866 0.0
C513 C 0.45404 0.92992 0.81491 0.0
N514 N 0.44489 0.93820 0.84610 0.0
N515 N 0.45383 0.94828 0.87104 0.0
C516 C 0.48088 0.96015 0.88964 0.0
C517 C 0.48968 0.97027 0.91473 0.0
C518 C 0.44521 0.91982 0.78983 0.0
C519 C 0.43647 0.90970 0.76465 0.0
