data_{}
_symmetry_space_group_name_H-M    P1
_symmetry_Int_Tables_number       1
_symmetry_cell_setting            triclinic
loop_
_symmetry_equiv_pos_as_xyz
'x, y, z'
_cell_length_a     54.256
_cell_length_b     40.820
_cell_length_c     63.541
_cell_angle_alpha  91.193
_cell_angle_beta   90.904
_cell_angle_gamma  110.158
loop_
_atom_site_label
_atom_site_type_symbol
_atom_site_fract_x
_atom_site_fract_y
_atom_site_fract_z
_atom_type_partial_charge
C0 C 0.02074 0.03168 0.59763 0.0
C1 C 0.02024 0.05093 0.61863 0.0
C2 C 0.01973 0.03246 0.63959 0.0
C3 C 0.01973 0.99474 0.63955 0.0
C4 C 0.02024 0.97548 0.61855 0.0
C5 C 0.02074 0.99395 0.59759 0.0
C6 C 0.02130 0.04291 0.57461 0.0
N7 N 0.02164 0.01212 0.56033 0.0
C8 C 0.02130 0.98186 0.57454 0.0
C9 C 0.02012 0.93867 0.62355 0.0
N10 N 0.01954 0.93518 0.64764 0.0
C11 C 0.01930 0.96983 0.65753 0.0
C12 C 0.01930 0.05805 0.65762 0.0
N13 N 0.01953 0.09233 0.64781 0.0
C14 C 0.02011 0.08793 0.62371 0.0
H15 H 0.02147 0.06828 0.56734 0.0
H16 H 0.02148 0.95621 0.56722 0.0
H17 H 0.02037 0.91588 0.61298 0.0
H18 H 0.01887 0.97308 0.67537 0.0
H19 H 0.01887 0.05546 0.67546 0.0
H20 H 0.02037 0.11033 0.61319 0.0
C21 C 0.01979 0.02482 0.37746 0.0
C22 C 0.01978 0.98710 0.37742 0.0
C23 C 0.02034 0.96911 0.39840 0.0
C24 C 0.02090 0.98886 0.41942 0.0
C25 C 0.02090 0.02658 0.41946 0.0
C26 C 0.02034 0.04457 0.39848 0.0
C27 C 0.01931 0.04931 0.35947 0.0
N28 N 0.01957 0.08420 0.36937 0.0
C29 C 0.02021 0.08126 0.39348 0.0
C30 C 0.02151 0.03922 0.44253 0.0
N31 N 0.02189 0.00929 0.45676 0.0
C32 C 0.02151 0.97817 0.44247 0.0
C33 C 0.02021 0.93200 0.39331 0.0
N34 N 0.01957 0.92704 0.36920 0.0
C35 C 0.01931 0.96109 0.35937 0.0
H36 H 0.01883 0.04565 0.34161 0.0
H37 H 0.02049 0.10430 0.40405 0.0
H38 H 0.02171 0.06503 0.44986 0.0
H39 H 0.02170 0.95296 0.44974 0.0
H40 H 0.02049 0.90984 0.40384 0.0
H41 H 0.01883 0.96326 0.34152 0.0
H42 H 0.05053 0.53716 0.76221 0.0
H43 H 0.04054 0.55917 0.77845 0.0
C44 C 0.00231 0.52373 0.74877 0.0
C45 C 0.01139 0.51245 0.76945 0.0
H46 H 0.01204 0.46534 0.78069 0.0
H47 H 0.99227 0.46008 0.76145 0.0
C48 C 0.99402 0.51605 0.78746 0.0
O49 O 0.99990 0.55699 0.75277 0.0
C50 C 0.03979 0.53577 0.77445 0.0
O51 O 0.96729 0.49931 0.78050 0.0
O52 O 0.04913 0.52045 0.79149 0.0
H53 H 0.98562 0.50679 0.74400 0.0
H54 H 0.01511 0.52555 0.73795 0.0
O55 O 0.02947 0.47303 0.75303 0.0
C56 C 0.00945 0.47424 0.76711 0.0
H57 H 0.99737 0.54050 0.79088 0.0
H58 H 0.99765 0.50499 0.79993 0.0
H59 H 0.04956 0.51016 0.25588 0.0
H60 H 0.03949 0.47896 0.23926 0.0
C61 C 0.00141 0.47937 0.26758 0.0
C62 C 0.01038 0.49895 0.24723 0.0
H63 H 0.01097 0.54663 0.23603 0.0
H64 H 0.99129 0.53378 0.25456 0.0
C65 C 0.99292 0.47938 0.22859 0.0
O66 O 0.99875 0.44368 0.26348 0.0
C67 C 0.03876 0.50167 0.24325 0.0
O68 O 0.96623 0.47161 0.23459 0.0
O69 O 0.04801 0.52553 0.22655 0.0
H70 H 0.98474 0.48101 0.27175 0.0
H71 H 0.01426 0.48931 0.27886 0.0
O72 O 0.02854 0.55498 0.26432 0.0
C73 C 0.00844 0.53538 0.24951 0.0
H74 H 0.99626 0.45800 0.22528 0.0
H75 H 0.99648 0.49375 0.21625 0.0
C76 C 0.67407 0.35952 0.98283 0.0
C77 C 0.66059 0.36218 0.00010 0.0
C78 C 0.63533 0.36672 0.00113 0.0
C79 C 0.61361 0.37187 0.00164 0.0
C80 C 0.58984 0.37624 0.00137 0.0
C81 C 0.57936 0.38655 0.98404 0.0
C82 C 0.55512 0.39284 0.98585 0.0
C83 C 0.54452 0.38953 0.00477 0.0
C84 C 0.55513 0.37988 0.02103 0.0
C85 C 0.57823 0.37367 0.01903 0.0
C86 C 0.67197 0.36048 0.02064 0.0
C87 C 0.69734 0.35569 0.02266 0.0
C88 C 0.70898 0.35421 0.04204 0.0
C89 C 0.71963 0.35292 0.05805 0.0
C90 C 0.73290 0.34712 0.07647 0.0
C91 C 0.72200 0.35593 0.09482 0.0
C92 C 0.73453 0.35134 0.11536 0.0
C93 C 0.75737 0.33827 0.11318 0.0
C94 C 0.76649 0.33217 0.09352 0.0
C95 C 0.75309 0.33508 0.07570 0.0
C96 C 0.70915 0.35247 0.00372 0.0
C97 C 0.69724 0.35430 0.98314 0.0
C98 C 0.71023 0.35256 0.96530 0.0
C99 C 0.72163 0.35043 0.94954 0.0
C100 C 0.73502 0.34877 0.92967 0.0
C101 C 0.75482 0.33731 0.92912 0.0
C102 C 0.76872 0.33789 0.91098 0.0
C103 C 0.75814 0.34531 0.89213 0.0
C104 C 0.73659 0.35571 0.89354 0.0
C105 C 0.72415 0.35581 0.91081 0.0
H106 H 0.66676 0.36150 0.96978 0.0
H107 H 0.58785 0.38943 0.97131 0.0
H108 H 0.54714 0.39899 0.97428 0.0
H109 H 0.54700 0.37726 0.03396 0.0
H110 H 0.58572 0.36741 0.03087 0.0
H111 H 0.66302 0.36243 0.03273 0.0
H112 H 0.70792 0.36403 0.09431 0.0
H113 H 0.72870 0.35616 0.12837 0.0
H114 H 0.78148 0.32623 0.09266 0.0
H115 H 0.75800 0.32856 0.06277 0.0
H116 H 0.72523 0.34906 0.00419 0.0
H117 H 0.75965 0.32854 0.94131 0.0
H118 H 0.78443 0.33354 0.91127 0.0
H119 H 0.73062 0.36309 0.88135 0.0
H120 H 0.70850 0.36038 0.91073 0.0
C121 C 0.34673 0.64975 0.03380 0.0
C122 C 0.36034 0.64746 0.01632 0.0
C123 C 0.38494 0.64109 0.01545 0.0
C124 C 0.40692 0.63666 0.01497 0.0
C125 C 0.43011 0.63070 0.01519 0.0
C126 C 0.44564 0.63429 0.03291 0.0
C127 C 0.47056 0.62988 0.03115 0.0
C128 C 0.47773 0.62376 0.01197 0.0
C129 C 0.46252 0.62072 0.99535 0.0
C130 C 0.43862 0.62473 0.99729 0.0
C131 C 0.34989 0.65172 0.99607 0.0
C132 C 0.32509 0.65807 0.99409 0.0
C133 C 0.31455 0.66258 0.97480 0.0
C134 C 0.30491 0.66666 0.95887 0.0
C135 C 0.29006 0.66811 0.94032 0.0
C136 C 0.30563 0.67214 0.92234 0.0
C137 C 0.29226 0.67442 0.90173 0.0
C138 C 0.26396 0.67247 0.90348 0.0
C139 C 0.25171 0.66995 0.92290 0.0
C140 C 0.26474 0.66603 0.94070 0.0
C141 C 0.31249 0.65913 0.01297 0.0
C142 C 0.32347 0.65475 0.03348 0.0
C143 C 0.31089 0.65760 0.05135 0.0
C144 C 0.29943 0.65959 0.06711 0.0
C145 C 0.28652 0.66257 0.08701 0.0
C146 C 0.26193 0.66084 0.08719 0.0
C147 C 0.25013 0.66602 0.10549 0.0
C148 C 0.26377 0.66703 0.12458 0.0
C149 C 0.28915 0.66719 0.12347 0.0
C150 C 0.30016 0.66313 0.10609 0.0
H151 H 0.35403 0.64776 0.04685 0.0
H152 H 0.44009 0.63951 0.04587 0.0
H153 H 0.48128 0.63125 0.04293 0.0
H154 H 0.46793 0.61588 0.98221 0.0
H155 H 0.42825 0.62308 0.98523 0.0
H156 H 0.35906 0.65038 0.98400 0.0
H157 H 0.32306 0.67328 0.92311 0.0
H158 H 0.30071 0.67684 0.88892 0.0
H159 H 0.23492 0.67095 0.92363 0.0
H160 H 0.25592 0.66179 0.95332 0.0
H161 H 0.29650 0.66279 0.01251 0.0
H162 H 0.25216 0.65600 0.07462 0.0
H163 H 0.23382 0.66873 0.10516 0.0
H164 H 0.29898 0.67039 0.13596 0.0
H165 H 0.31657 0.66066 0.10623 0.0
C166 C 0.81246 0.41168 0.84281 0.0
C167 C 0.83829 0.40486 0.84700 0.0
C168 C 0.83915 0.37728 0.86289 0.0
C169 C 0.81420 0.35653 0.87460 0.0
C170 C 0.93834 0.48754 0.80034 0.0
C171 C 0.78751 0.39091 0.85452 0.0
C172 C 0.86326 0.42558 0.83530 0.0
C173 C 0.88826 0.44627 0.82364 0.0
C174 C 0.91329 0.46691 0.81198 0.0
C175 C 0.78838 0.36334 0.87041 0.0
H176 H 0.81182 0.43209 0.83104 0.0
H177 H 0.85826 0.37224 0.86600 0.0
H178 H 0.81485 0.33611 0.88636 0.0
H179 H 0.76840 0.39597 0.85142 0.0
C180 C 0.82317 0.34208 0.15954 0.0
C181 C 0.83715 0.38194 0.16096 0.0
C182 C 0.82562 0.40603 0.14904 0.0
C183 C 0.80014 0.39028 0.13571 0.0
C184 C 0.93912 0.44555 0.21421 0.0
C185 C 0.79768 0.32633 0.14620 0.0
C186 C 0.86264 0.39774 0.17429 0.0
C187 C 0.88813 0.41362 0.18760 0.0
C188 C 0.91362 0.42956 0.20091 0.0
C189 C 0.78616 0.35043 0.13429 0.0
H190 H 0.83170 0.32424 0.16836 0.0
H191 H 0.83597 0.43553 0.15008 0.0
H192 H 0.79161 0.40813 0.12689 0.0
H193 H 0.78734 0.29683 0.14515 0.0
C194 C 0.18959 0.60082 0.87626 0.0
C195 C 0.18355 0.61540 0.85540 0.0
C196 C 0.20253 0.65026 0.84755 0.0
C197 C 0.22755 0.67055 0.86053 0.0
C198 C 0.08360 0.53467 0.80316 0.0
C199 C 0.21462 0.62112 0.88925 0.0
C200 C 0.15854 0.59514 0.84239 0.0
C201 C 0.13355 0.57494 0.82934 0.0
C202 C 0.10857 0.55479 0.81626 0.0
C203 C 0.23360 0.65599 0.88139 0.0
H204 H 0.17554 0.57501 0.88208 0.0
H205 H 0.19806 0.66106 0.83211 0.0
H206 H 0.24160 0.69636 0.85470 0.0
H207 H 0.21909 0.61033 0.90469 0.0
C208 C 0.18235 0.62850 0.14584 0.0
C209 C 0.18337 0.62081 0.16940 0.0
C210 C 0.21006 0.62969 0.18106 0.0
C211 C 0.23572 0.64626 0.16919 0.0
C212 C 0.08098 0.55459 0.21726 0.0
C213 C 0.20801 0.64507 0.13396 0.0
C214 C 0.15773 0.60425 0.18131 0.0
C215 C 0.13212 0.58769 0.19326 0.0
C216 C 0.10654 0.57114 0.20525 0.0
C217 C 0.23470 0.65395 0.14563 0.0
H218 H 0.16259 0.62193 0.13720 0.0
H219 H 0.21083 0.62399 0.19850 0.0
H220 H 0.25548 0.65283 0.17783 0.0
H221 H 0.20725 0.65076 0.11652 0.0
H222 H 0.48946 0.44913 0.01712 0.0
H223 H 0.46583 0.48400 0.00800 0.0
C224 C 0.52533 0.48488 0.01382 0.0
H225 H 0.55614 0.52851 0.00872 0.0
H226 H 0.49618 0.60008 0.99227 0.0
C227 C 0.54117 0.46227 0.02008 0.0
H228 H 0.52579 0.41242 0.02445 0.0
C229 C 0.49826 0.47215 0.01357 0.0
C230 C 0.53789 0.51937 0.00858 0.0
H231 H 0.53251 0.56337 0.99990 0.0
C232 C 0.49664 0.52762 0.00289 0.0
C233 C 0.48080 0.55024 0.99664 0.0
N234 N 0.49323 0.58680 0.00156 0.0
C235 C 0.52371 0.54035 0.00315 0.0
N236 N 0.52874 0.42571 0.01515 0.0
C237 C 0.48409 0.49313 0.00814 0.0
H238 H 0.47715 0.54728 0.98159 0.0
H239 H 0.46411 0.54200 0.00365 0.0
H240 H 0.54482 0.46523 0.03512 0.0
H241 H 0.55786 0.47050 0.01307 0.0
C242 C 0.01968 0.12332 0.65787 0.0
C243 C 0.02035 0.15849 0.66761 0.0
C244 C 0.02103 0.19366 0.67736 0.0
C245 C 0.04638 0.22578 0.67686 0.0
C246 C 0.04704 0.26094 0.68661 0.0
C247 C 0.02236 0.26399 0.69684 0.0
C248 C 0.99701 0.23187 0.69734 0.0
C249 C 0.99635 0.19671 0.68760 0.0
C250 C 0.02302 0.29916 0.70657 0.0
C251 C 0.99834 0.30223 0.71679 0.0
C252 C 0.99990 0.33741 0.72652 0.0
C253 C 0.02438 0.36951 0.72604 0.0
C254 C 0.04907 0.36644 0.71581 0.0
C255 C 0.04839 0.33126 0.70608 0.0
C256 C 0.02506 0.40469 0.73576 0.0
C257 C 0.02579 0.43990 0.74549 0.0
H258 H 0.06466 0.22352 0.66929 0.0
H259 H 0.06580 0.28471 0.68624 0.0
H260 H 0.97873 0.23412 0.70491 0.0
H261 H 0.97759 0.17293 0.68797 0.0
H262 H 0.97956 0.27847 0.71716 0.0
H263 H 0.98074 0.33969 0.73408 0.0
H264 H 0.06784 0.39021 0.71545 0.0
H265 H 0.06666 0.32898 0.69852 0.0
C266 C 0.01846 0.90439 0.65759 0.0
C267 C 0.01625 0.86917 0.66716 0.0
C268 C 0.01404 0.83394 0.67672 0.0
C269 C 0.03896 0.82722 0.68424 0.0
C270 C 0.03674 0.79199 0.69380 0.0
C271 C 0.00960 0.76347 0.69585 0.0
C272 C 0.98468 0.77018 0.68833 0.0
C273 C 0.98691 0.80541 0.67876 0.0
C274 C 0.00739 0.72826 0.70543 0.0
C275 C 0.98025 0.69974 0.70750 0.0
C276 C 0.97805 0.66452 0.71708 0.0
C277 C 0.00298 0.65782 0.72458 0.0
C278 C 0.03012 0.68634 0.72251 0.0
C279 C 0.03232 0.72155 0.71293 0.0
C280 C 0.00010 0.62260 0.73416 0.0
C281 C 0.99863 0.58740 0.74373 0.0
H282 H 0.05906 0.84833 0.68272 0.0
H283 H 0.05518 0.78702 0.69937 0.0
H284 H 0.96459 0.74908 0.68985 0.0
H285 H 0.96846 0.81038 0.67319 0.0
H286 H 0.96179 0.70469 0.70194 0.0
H287 H 0.95796 0.64341 0.71862 0.0
H288 H 0.04857 0.68138 0.72807 0.0
H289 H 0.05241 0.74267 0.71140 0.0
C290 C 0.01966 0.89615 0.35914 0.0
C291 C 0.02024 0.86155 0.34942 0.0
C292 C 0.02083 0.82696 0.33970 0.0
C293 C 0.04431 0.81500 0.34436 0.0
C294 C 0.04487 0.78040 0.33464 0.0
C295 C 0.02197 0.75777 0.32025 0.0
C296 C 0.99848 0.76973 0.31559 0.0
C297 C 0.99792 0.80433 0.32531 0.0
C298 C 0.02253 0.72315 0.31055 0.0
C299 C 0.99990 0.70050 0.29617 0.0
C300 C 0.00010 0.66589 0.28647 0.0
C301 C 0.02370 0.65396 0.29113 0.0
C302 C 0.04661 0.67662 0.30550 0.0
C303 C 0.04603 0.71122 0.31520 0.0
C304 C 0.02429 0.61936 0.28142 0.0
C305 C 0.02491 0.58477 0.27172 0.0
H306 H 0.06127 0.83176 0.35500 0.0
H307 H 0.06225 0.77154 0.33809 0.0
H308 H 0.98153 0.75297 0.30495 0.0
H309 H 0.98055 0.81320 0.32185 0.0
H310 H 0.98223 0.70933 0.29272 0.0
H311 H 0.98324 0.64910 0.27584 0.0
H312 H 0.06400 0.66778 0.30895 0.0
H313 H 0.06299 0.72801 0.32584 0.0
C314 C 0.01844 0.11397 0.35937 0.0
C315 C 0.01615 0.14712 0.34971 0.0
C316 C 0.01386 0.18027 0.34004 0.0
C317 C 0.98679 0.18434 0.33758 0.0
C318 C 0.98452 0.21750 0.32792 0.0
C319 C 0.00932 0.24659 0.32072 0.0
C320 C 0.03639 0.24254 0.32318 0.0
C321 C 0.03866 0.20937 0.33284 0.0
C322 C 0.00703 0.27976 0.31108 0.0
C323 C 0.03183 0.30888 0.30389 0.0
C324 C 0.02954 0.34204 0.29425 0.0
C325 C 0.00245 0.34607 0.29177 0.0
C326 C 0.97765 0.31695 0.29896 0.0
C327 C 0.97995 0.28379 0.30861 0.0
C328 C 0.00010 0.37923 0.28212 0.0
C329 C 0.99782 0.41236 0.27247 0.0
H330 H 0.96842 0.16279 0.34291 0.0
H331 H 0.96448 0.22051 0.32610 0.0
H332 H 0.05475 0.26408 0.31786 0.0
H333 H 0.05870 0.20635 0.33465 0.0
H334 H 0.05188 0.30590 0.30571 0.0
H335 H 0.04789 0.36361 0.28893 0.0
H336 H 0.95760 0.31994 0.29714 0.0
H337 H 0.96159 0.26223 0.31392 0.0
C338 C 0.04570 0.00872 0.49842 0.0
C339 C 0.02192 0.01000 0.48427 0.0
C340 C 0.99755 0.01154 0.49591 0.0
C341 C 0.99748 0.01192 0.52030 0.0
C342 C 0.02177 0.01073 0.53282 0.0
C343 C 0.04571 0.00728 0.52036 0.0
C344 C 0.07481 0.02412 0.52224 0.0
C345 C 0.07489 0.02375 0.49700 0.0
H346 H 0.97969 0.01240 0.48656 0.0
H347 H 0.97953 0.01307 0.52894 0.0
H348 H 0.08480 0.00629 0.52926 0.0
H349 H 0.07992 0.05013 0.53126 0.0
H350 H 0.08381 0.00456 0.49001 0.0
H351 H 0.08461 0.05150 0.49139 0.0
