data_{}
_symmetry_space_group_name_H-M    P1
_symmetry_Int_Tables_number       1
_symmetry_cell_setting            triclinic
loop_
_symmetry_equiv_pos_as_xyz
'x, y, z'
_cell_length_a     27.456
_cell_length_b     27.669
_cell_length_c     85.506
_cell_angle_alpha  89.993
_cell_angle_beta   91.305
_cell_angle_gamma  89.935
loop_
_atom_site_label
_atom_site_type_symbol
_atom_site_fract_x
_atom_site_fract_y
_atom_site_fract_z
_atom_type_partial_charge
C0 C 0.20872 0.25322 0.01711 0.0
C1 C 0.21009 0.25324 0.99990 0.0
C2 C 0.21077 0.20485 0.99024 0.0
C3 C 0.21076 0.30164 0.99025 0.0
C4 C 0.20804 0.30160 0.02598 0.0
C5 C 0.20804 0.20481 0.02597 0.0
C6 C 0.25930 0.17936 0.98707 0.0
C7 C 0.26005 0.13346 0.97714 0.0
C8 C 0.21212 0.10808 0.97250 0.0
C9 C 0.16360 0.13357 0.97567 0.0
C10 C 0.16284 0.17947 0.98560 0.0
C11 C 0.25929 0.32703 0.98708 0.0
C12 C 0.26005 0.37296 0.97716 0.0
C13 C 0.21212 0.39845 0.97252 0.0
C14 C 0.16359 0.37306 0.97569 0.0
C15 C 0.16284 0.32714 0.98562 0.0
C16 C 0.15951 0.32709 0.02916 0.0
C17 C 0.15876 0.37299 0.03909 0.0
C18 C 0.20669 0.39837 0.04373 0.0
C19 C 0.25521 0.37288 0.04055 0.0
C20 C 0.25597 0.32698 0.03062 0.0
C21 C 0.15952 0.17943 0.02915 0.0
C22 C 0.15876 0.13349 0.03907 0.0
C23 C 0.20669 0.10800 0.04371 0.0
C24 C 0.25522 0.13339 0.04053 0.0
C25 C 0.25597 0.17932 0.03061 0.0
H26 H 0.29478 0.19475 0.99213 0.0
H27 H 0.29622 0.11799 0.97316 0.0
H28 H 0.12808 0.11825 0.97062 0.0
H29 H 0.12667 0.19494 0.98958 0.0
H30 H 0.29477 0.31155 0.99214 0.0
H31 H 0.29622 0.38835 0.97318 0.0
H32 H 0.12667 0.31174 0.98959 0.0
H33 H 0.12403 0.31170 0.02409 0.0
H34 H 0.12259 0.38846 0.04307 0.0
H35 H 0.29073 0.38821 0.04561 0.0
H36 H 0.29214 0.31151 0.02664 0.0
H37 H 0.12404 0.19490 0.02408 0.0
H38 H 0.12259 0.11810 0.04304 0.0
H39 H 0.29074 0.11797 0.04558 0.0
H40 H 0.29214 0.19471 0.02663 0.0
H41 H 0.12807 0.38848 0.97064 0.0
C42 C 0.45903 0.00657 0.52076 0.0
C43 C 0.45780 0.00652 0.50275 0.0
C44 C 0.50596 0.00649 0.49388 0.0
C45 C 0.40841 0.00649 0.49386 0.0
C46 C 0.41087 0.00660 0.52963 0.0
C47 C 0.50842 0.00661 0.52965 0.0
C48 C 0.53127 0.05434 0.48996 0.0
C49 C 0.57685 0.05430 0.48003 0.0
C50 C 0.60228 0.00644 0.47614 0.0
C51 C 0.57696 0.95860 0.48007 0.0
C52 C 0.53138 0.95863 0.48999 0.0
C53 C 0.38245 0.05434 0.48993 0.0
C54 C 0.33549 0.05430 0.47998 0.0
C55 C 0.30964 0.00644 0.47608 0.0
C56 C 0.33561 0.95859 0.48001 0.0
C57 C 0.38256 0.95862 0.48996 0.0
C58 C 0.38556 0.95875 0.53355 0.0
C59 C 0.33997 0.95879 0.54348 0.0
C60 C 0.31455 0.00666 0.54737 0.0
C61 C 0.33986 0.05450 0.54345 0.0
C62 C 0.38545 0.05447 0.53352 0.0
C63 C 0.53437 0.95876 0.53359 0.0
C64 C 0.58134 0.95879 0.54353 0.0
C65 C 0.60718 0.00666 0.54743 0.0
C66 C 0.58122 0.05450 0.54350 0.0
C67 C 0.53426 0.05447 0.53355 0.0
H68 H 0.51599 0.08990 0.49447 0.0
H69 H 0.59206 0.08984 0.47549 0.0
H70 H 0.59219 0.92299 0.47557 0.0
H71 H 0.51618 0.92309 0.49453 0.0
H72 H 0.39827 0.08990 0.49444 0.0
H73 H 0.31959 0.08984 0.47544 0.0
H74 H 0.39847 0.92309 0.49450 0.0
H75 H 0.40084 0.92319 0.52904 0.0
H76 H 0.32477 0.92325 0.54802 0.0
H77 H 0.32464 0.09011 0.54794 0.0
H78 H 0.40065 0.09001 0.52898 0.0
H79 H 0.51855 0.92319 0.52907 0.0
H80 H 0.59724 0.92325 0.54808 0.0
H81 H 0.59698 0.09011 0.54800 0.0
H82 H 0.51836 0.09001 0.52901 0.0
H83 H 0.31985 0.92298 0.47551 0.0
C84 C 0.46527 0.20801 0.77142 0.0
H85 H 0.50104 0.28301 0.78494 0.0
H86 H 0.50725 0.32074 0.77152 0.0
H87 H 0.40272 0.27674 0.76110 0.0
H88 H 0.43577 0.30495 0.74964 0.0
C89 C 0.52179 0.25605 0.75378 0.0
H90 H 0.43757 0.21154 0.77817 0.0
H91 H 0.45645 0.18459 0.76340 0.0
H92 H 0.53098 0.28930 0.75177 0.0
H93 H 0.54743 0.24202 0.76031 0.0
C94 C 0.48486 0.29757 0.77589 0.0
C95 C 0.47486 0.25712 0.76346 0.0
C96 C 0.42925 0.27316 0.75388 0.0
C97 C 0.44944 0.20705 0.25187 0.0
H98 H 0.41206 0.28216 0.23882 0.0
H99 H 0.40736 0.31982 0.25234 0.0
H100 H 0.51299 0.27566 0.26148 0.0
H101 H 0.48128 0.30383 0.27336 0.0
C102 C 0.39497 0.25502 0.27022 0.0
H103 H 0.47631 0.21060 0.24479 0.0
H104 H 0.45920 0.18357 0.25977 0.0
H105 H 0.38599 0.28827 0.27236 0.0
H106 H 0.36864 0.24105 0.26398 0.0
C107 C 0.42924 0.29665 0.24768 0.0
C108 C 0.44072 0.25612 0.25998 0.0
C109 C 0.48734 0.27206 0.26902 0.0
H110 H 0.39756 0.72289 0.84274 0.0
C111 C 0.44474 0.78078 0.84709 0.0
C112 C 0.43251 0.72608 0.84568 0.0
H113 H 0.47704 0.78489 0.85228 0.0
C114 C 0.46282 0.72546 0.83028 0.0
C115 C 0.45036 0.78035 0.82883 0.0
H116 H 0.49788 0.72123 0.83287 0.0
H117 H 0.41769 0.78379 0.82381 0.0
H118 H 0.97681 0.27836 0.33243 0.0
C119 C 0.91820 0.23132 0.32872 0.0
C120 C 0.97341 0.24352 0.32997 0.0
H121 H 0.91372 0.19896 0.32398 0.0
C122 C 0.97511 0.21447 0.34580 0.0
C123 C 0.91989 0.22694 0.34706 0.0
H124 H 0.97922 0.17955 0.34371 0.0
H125 H 0.91674 0.25966 0.35162 0.0
H126 H 0.38944 0.72224 0.19810 0.0
C127 C 0.43514 0.78014 0.19294 0.0
C128 C 0.42279 0.72544 0.19404 0.0
H129 H 0.47042 0.78425 0.19123 0.0
C130 C 0.41931 0.72487 0.17565 0.0
C131 C 0.40670 0.77976 0.17677 0.0
H132 H 0.45210 0.72064 0.17127 0.0
H133 H 0.37143 0.78320 0.17869 0.0
H134 H 0.99990 0.26076 0.67196 0.0
C135 C 0.94158 0.21575 0.67774 0.0
C136 C 0.99661 0.22795 0.67648 0.0
H137 H 0.93760 0.18089 0.67993 0.0
C138 C 0.99844 0.23253 0.69483 0.0
C139 C 0.94303 0.24494 0.69352 0.0
H140 H 0.00304 0.20029 0.69966 0.0
H141 H 0.93939 0.27979 0.69112 0.0
C142 C 0.45913 0.51169 0.80011 0.0
C143 C 0.41182 0.48781 0.79397 0.0
C144 C 0.41286 0.43567 0.78769 0.0
C145 C 0.46120 0.40739 0.78756 0.0
C146 C 0.50852 0.43128 0.79370 0.0
C147 C 0.50748 0.48343 0.79998 0.0
C148 C 0.45812 0.56384 0.80640 0.0
C149 C 0.45715 0.61597 0.81269 0.0
H150 H 0.37602 0.50873 0.79406 0.0
H151 H 0.37784 0.41797 0.78314 0.0
H152 H 0.54430 0.41036 0.79361 0.0
H153 H 0.54250 0.50113 0.80453 0.0
C154 C 0.19141 0.24028 0.30037 0.0
C155 C 0.23502 0.23858 0.31200 0.0
C156 C 0.28739 0.23936 0.30592 0.0
C157 C 0.29614 0.24184 0.28821 0.0
C158 C 0.25253 0.24352 0.27658 0.0
C159 C 0.20017 0.24273 0.28266 0.0
C160 C 0.13903 0.23952 0.30643 0.0
C161 C 0.08664 0.23877 0.31249 0.0
H162 H 0.22856 0.23674 0.32511 0.0
H163 H 0.31968 0.23810 0.31453 0.0
H164 H 0.25902 0.24534 0.26347 0.0
H165 H 0.16787 0.24397 0.27405 0.0
C166 C 0.44495 0.51076 0.22261 0.0
C167 C 0.39744 0.48177 0.22411 0.0
C168 C 0.39904 0.42977 0.23053 0.0
C169 C 0.44815 0.40676 0.23545 0.0
C170 C 0.49566 0.43574 0.23394 0.0
C171 C 0.49406 0.48774 0.22752 0.0
C172 C 0.44337 0.56277 0.21620 0.0
C173 C 0.44185 0.61478 0.20980 0.0
H174 H 0.36108 0.49879 0.22047 0.0
H175 H 0.36387 0.40830 0.23164 0.0
H176 H 0.53200 0.41870 0.23758 0.0
H177 H 0.52922 0.50920 0.22641 0.0
C178 C 0.72556 0.24135 0.72331 0.0
C179 C 0.68175 0.23940 0.71176 0.0
C180 C 0.62950 0.24018 0.71793 0.0
C181 C 0.62106 0.24291 0.73566 0.0
C182 C 0.66487 0.24484 0.74721 0.0
C183 C 0.71712 0.24406 0.74103 0.0
C184 C 0.77782 0.24060 0.71714 0.0
C185 C 0.83010 0.23986 0.71099 0.0
H186 H 0.68798 0.23738 0.69864 0.0
H187 H 0.59706 0.23873 0.70939 0.0
H188 H 0.65863 0.24685 0.76033 0.0
H189 H 0.74957 0.24549 0.74958 0.0
C190 C 0.47411 0.99567 0.80119 0.0
C191 C 0.52325 0.02215 0.80024 0.0
C192 C 0.52505 0.07422 0.79391 0.0
C193 C 0.47771 0.09981 0.78855 0.0
C194 C 0.42856 0.07333 0.78949 0.0
C195 C 0.42677 0.02125 0.79582 0.0
C196 C 0.47228 0.94360 0.80752 0.0
C197 C 0.47040 0.89154 0.81385 0.0
H198 H 0.55830 0.00322 0.80421 0.0
H199 H 0.56142 0.09383 0.79320 0.0
H200 H 0.39353 0.09226 0.78552 0.0
H201 H 0.39039 0.00163 0.79652 0.0
C202 C 0.21931 0.25523 0.72280 0.0
C203 C 0.22982 0.25730 0.74055 0.0
C204 C 0.28281 0.25864 0.74684 0.0
C205 C 0.32528 0.25791 0.73539 0.0
C206 C 0.31477 0.25583 0.71763 0.0
C207 C 0.26179 0.25449 0.71134 0.0
C208 C 0.16634 0.25392 0.71649 0.0
C209 C 0.11338 0.25261 0.71018 0.0
H210 H 0.19839 0.25783 0.74904 0.0
H211 H 0.29060 0.26016 0.75999 0.0
H212 H 0.34621 0.25528 0.70915 0.0
H213 H 0.25399 0.25294 0.69819 0.0
C214 C 0.43018 0.99480 0.22276 0.0
C215 C 0.47881 0.01828 0.22787 0.0
C216 C 0.47957 0.07052 0.23408 0.0
C217 C 0.43170 0.09927 0.23520 0.0
C218 C 0.38308 0.07579 0.23008 0.0
C219 C 0.38232 0.02355 0.22387 0.0
C220 C 0.42939 0.94255 0.21655 0.0
C221 C 0.42855 0.89031 0.21034 0.0
H222 H 0.51425 0.99702 0.22705 0.0
H223 H 0.51557 0.08792 0.23786 0.0
H224 H 0.34765 0.09707 0.23090 0.0
H225 H 0.34632 0.00616 0.22008 0.0
C226 C 0.69758 0.25406 0.30032 0.0
C227 C 0.68733 0.25613 0.28255 0.0
C228 C 0.63443 0.25747 0.27618 0.0
C229 C 0.59178 0.25676 0.28757 0.0
C230 C 0.60203 0.25468 0.30534 0.0
C231 C 0.65493 0.25333 0.31171 0.0
C232 C 0.75046 0.25274 0.30671 0.0
C233 C 0.80333 0.25143 0.31311 0.0
H234 H 0.71889 0.25665 0.27412 0.0
H235 H 0.62683 0.25899 0.26302 0.0
H236 H 0.57046 0.25414 0.31377 0.0
H237 H 0.66253 0.25179 0.32487 0.0
C238 C 0.25201 0.51129 0.95787 0.0
C239 C 0.26364 0.48897 0.94188 0.0
C240 C 0.25112 0.43569 0.93851 0.0
C241 C 0.22702 0.40471 0.95113 0.0
C242 C 0.21541 0.42700 0.96712 0.0
C243 C 0.22790 0.48030 0.97049 0.0
C244 C 0.28789 0.51992 0.92928 0.0
C245 C 0.31219 0.55082 0.91667 0.0
C246 C 0.33658 0.58167 0.90407 0.0
C247 C 0.36104 0.61247 0.89148 0.0
C248 C 0.38556 0.64325 0.87889 0.0
C249 C 0.39801 0.62057 0.86302 0.0
C250 C 0.42272 0.65128 0.85046 0.0
C251 C 0.43495 0.70467 0.85375 0.0
C252 C 0.42245 0.72736 0.86961 0.0
C253 C 0.39776 0.69665 0.88218 0.0
H254 H 0.26123 0.55074 0.96036 0.0
H255 H 0.25972 0.41919 0.92667 0.0
H256 H 0.21776 0.36526 0.94863 0.0
H257 H 0.21928 0.49682 0.98232 0.0
H258 H 0.38897 0.58104 0.86059 0.0
H259 H 0.43197 0.63449 0.83872 0.0
H260 H 0.43148 0.76689 0.87204 0.0
H261 H 0.38851 0.71344 0.89392 0.0
C262 C 0.24400 0.08792 0.45710 0.0
C263 C 0.21716 0.05597 0.44494 0.0
C264 C 0.22219 0.00010 0.44576 0.0
C265 C 0.25413 0.97716 0.45872 0.0
C266 C 0.28100 0.00910 0.47087 0.0
C267 C 0.27593 0.06449 0.47006 0.0
C268 C 0.18535 0.07941 0.43196 0.0
C269 C 0.15358 0.10283 0.41895 0.0
C270 C 0.12188 0.12621 0.40592 0.0
C271 C 0.09024 0.14958 0.39287 0.0
C272 C 0.05865 0.17294 0.37982 0.0
C273 C 0.03261 0.14094 0.36750 0.0
C274 C 0.00119 0.16429 0.35440 0.0
C275 C 0.99578 0.21965 0.35362 0.0
C276 C 0.02178 0.25164 0.36595 0.0
C277 C 0.05322 0.22829 0.37904 0.0
H278 H 0.24024 0.12892 0.45650 0.0
H279 H 0.20230 0.97694 0.43677 0.0
H280 H 0.25786 0.93615 0.45932 0.0
H281 H 0.29580 0.08813 0.47906 0.0
H282 H 0.03663 0.09996 0.36808 0.0
H283 H 0.98195 0.14061 0.34528 0.0
H284 H 0.01775 0.29262 0.36537 0.0
H285 H 0.07247 0.25198 0.38817 0.0
C286 C 0.21276 0.50988 0.06444 0.0
C287 C 0.25158 0.48851 0.07575 0.0
C288 C 0.26904 0.43605 0.07363 0.0
C289 C 0.24764 0.40495 0.06023 0.0
C290 C 0.20881 0.42630 0.04893 0.0
C291 C 0.19137 0.47877 0.05103 0.0
C292 C 0.27286 0.51957 0.08919 0.0
C293 C 0.29411 0.55058 0.10265 0.0
C294 C 0.31532 0.58153 0.11612 0.0
C295 C 0.33648 0.61245 0.12962 0.0
C296 C 0.35760 0.64333 0.14313 0.0
C297 C 0.39572 0.62155 0.15460 0.0
C298 C 0.41669 0.65235 0.16814 0.0
C299 C 0.39958 0.70493 0.17022 0.0
C300 C 0.36150 0.72672 0.15874 0.0
C301 C 0.34052 0.69591 0.14519 0.0
H302 H 0.19986 0.54872 0.06600 0.0
H303 H 0.29779 0.42025 0.08200 0.0
H304 H 0.26057 0.36612 0.05866 0.0
H305 H 0.16264 0.49458 0.04266 0.0
H306 H 0.40838 0.58262 0.15306 0.0
H307 H 0.44488 0.63623 0.17664 0.0
H308 H 0.34885 0.76565 0.16027 0.0
H309 H 0.31232 0.71204 0.13670 0.0
C310 C 0.69042 0.00120 0.57878 0.0
C311 C 0.69842 0.05627 0.57889 0.0
C312 C 0.67500 0.08790 0.56594 0.0
C313 C 0.64363 0.06444 0.55287 0.0
C314 C 0.63564 0.00937 0.55274 0.0
C315 C 0.65903 0.97774 0.56570 0.0
C316 C 0.72993 0.07971 0.59194 0.0
C317 C 0.76149 0.10317 0.60498 0.0
C318 C 0.79311 0.12665 0.61799 0.0
C319 C 0.82480 0.15015 0.63098 0.0
C320 C 0.85654 0.17364 0.64396 0.0
C321 C 0.86525 0.22861 0.64388 0.0
C322 C 0.89716 0.25209 0.65682 0.0
C323 C 0.92033 0.22061 0.66985 0.0
C324 C 0.91157 0.16565 0.66994 0.0
C325 C 0.87967 0.14217 0.65700 0.0
H326 H 0.70772 0.97778 0.58837 0.0
H327 H 0.68091 0.12867 0.56604 0.0
H328 H 0.62629 0.08786 0.54328 0.0
H329 H 0.65310 0.93697 0.56561 0.0
H330 H 0.84811 0.25192 0.63422 0.0
H331 H 0.90364 0.29278 0.65675 0.0
H332 H 0.92870 0.14235 0.67960 0.0
H333 H 0.87320 0.10147 0.65707 0.0
C334 C 0.21626 0.04941 0.93774 0.0
C335 C 0.26089 0.01759 0.94172 0.0
C336 C 0.28250 0.01695 0.95850 0.0
C337 C 0.25950 0.04817 0.97129 0.0
C338 C 0.21489 0.08002 0.96730 0.0
C339 C 0.19326 0.08063 0.95053 0.0
C340 C 0.28398 0.98649 0.92892 0.0
C341 C 0.30714 0.95542 0.91612 0.0
C342 C 0.33037 0.92441 0.90332 0.0
C343 C 0.35367 0.89346 0.89052 0.0
C344 C 0.37701 0.86255 0.87772 0.0
C345 C 0.42222 0.83149 0.88167 0.0
C346 C 0.44570 0.80074 0.86886 0.0
C347 C 0.42397 0.80102 0.85210 0.0
C348 C 0.37872 0.83204 0.84815 0.0
C349 C 0.35525 0.86280 0.86096 0.0
H350 H 0.20023 0.04985 0.92532 0.0
H351 H 0.31552 0.99338 0.96145 0.0
H352 H 0.27550 0.04770 0.98371 0.0
H353 H 0.16021 0.10418 0.94758 0.0
H354 H 0.43833 0.83130 0.89408 0.0
H355 H 0.47919 0.77778 0.87178 0.0
H356 H 0.36262 0.83222 0.83575 0.0
H357 H 0.32176 0.88577 0.85804 0.0
C358 C 0.24196 0.08482 0.56478 0.0
C359 C 0.22777 0.05379 0.57892 0.0
C360 C 0.24336 0.00010 0.57983 0.0
C361 C 0.27310 0.97796 0.56661 0.0
C362 C 0.28727 0.00897 0.55247 0.0
C363 C 0.27171 0.06242 0.55156 0.0
C364 C 0.19789 0.07615 0.59212 0.0
C365 C 0.16796 0.09848 0.60532 0.0
C366 C 0.13795 0.12074 0.61851 0.0
C367 C 0.10787 0.14296 0.63169 0.0
C368 C 0.07774 0.16516 0.64486 0.0
C369 C 0.06280 0.13378 0.65883 0.0
C370 C 0.03249 0.15591 0.67196 0.0
C371 C 0.01715 0.20941 0.67114 0.0
C372 C 0.03215 0.24080 0.65718 0.0
C373 C 0.06244 0.21867 0.64404 0.0
H374 H 0.23046 0.12438 0.56411 0.0
H375 H 0.23287 0.97740 0.59030 0.0
H376 H 0.28463 0.93841 0.56728 0.0
H377 H 0.28223 0.08538 0.54110 0.0
H378 H 0.07414 0.09416 0.65943 0.0
H379 H 0.02139 0.13267 0.68230 0.0
H380 H 0.02082 0.28041 0.65658 0.0
H381 H 0.07354 0.24191 0.63370 0.0
C382 C 0.23844 0.99377 0.06016 0.0
C383 C 0.25331 0.01744 0.07585 0.0
C384 C 0.24604 0.07213 0.07821 0.0
C385 C 0.22396 0.10315 0.06488 0.0
C386 C 0.20912 0.07948 0.04919 0.0
C387 C 0.21635 0.02478 0.04683 0.0
C388 C 0.27554 0.98645 0.08917 0.0
C389 C 0.29783 0.95549 0.10249 0.0
C390 C 0.32020 0.92458 0.11580 0.0
C391 C 0.34266 0.89370 0.12911 0.0
C392 C 0.36517 0.86285 0.14241 0.0
C393 C 0.38087 0.88679 0.15798 0.0
C394 C 0.40358 0.85599 0.17126 0.0
C395 C 0.41056 0.80123 0.16897 0.0
C396 C 0.39480 0.77728 0.15341 0.0
C397 C 0.37211 0.80809 0.14013 0.0
H398 H 0.24378 0.95327 0.05842 0.0
H399 H 0.25703 0.08965 0.08983 0.0
H400 H 0.21859 0.14363 0.06663 0.0
H401 H 0.20534 0.00726 0.03522 0.0
H402 H 0.37573 0.92734 0.15966 0.0
H403 H 0.41524 0.87372 0.18278 0.0
H404 H 0.39994 0.73674 0.15173 0.0
H405 H 0.36045 0.79036 0.12861 0.0
C406 C 0.63346 0.05455 0.44366 0.0
C407 C 0.68951 0.05240 0.44450 0.0
C408 C 0.71565 0.02828 0.45859 0.0
C409 C 0.68574 0.00637 0.47185 0.0
C410 C 0.62969 0.00854 0.47102 0.0
C411 C 0.60355 0.03262 0.45692 0.0
C412 C 0.71942 0.07446 0.43126 0.0
C413 C 0.74937 0.09656 0.41804 0.0
C414 C 0.77935 0.11874 0.40484 0.0
C415 C 0.80935 0.14098 0.39165 0.0
C416 C 0.83935 0.16328 0.37848 0.0
C417 C 0.89541 0.16190 0.37950 0.0
C418 C 0.92543 0.18438 0.36636 0.0
C419 C 0.89940 0.20820 0.35220 0.0
C420 C 0.84334 0.20952 0.35117 0.0
C421 C 0.81332 0.18706 0.36431 0.0
H422 H 0.61411 0.07236 0.43322 0.0
H423 H 0.75714 0.02667 0.45921 0.0
H424 H 0.70509 0.98852 0.48228 0.0
H425 H 0.56206 0.03421 0.45630 0.0
H426 H 0.91468 0.14428 0.38999 0.0
H427 H 0.96692 0.18339 0.36713 0.0
H428 H 0.82408 0.22713 0.34068 0.0
H429 H 0.77182 0.18805 0.36355 0.0
