data_{}
_symmetry_space_group_name_H-M    P1
_symmetry_Int_Tables_number       1
_symmetry_cell_setting            triclinic
loop_
_symmetry_equiv_pos_as_xyz
'x, y, z'
_cell_length_a     86.327
_cell_length_b     86.331
_cell_length_c     46.154
_cell_angle_alpha  90.111
_cell_angle_beta   90.111
_cell_angle_gamma  104.983
loop_
_atom_site_label
_atom_site_type_symbol
_atom_site_fract_x
_atom_site_fract_y
_atom_site_fract_z
_atom_type_partial_charge
C0 C 0.99990 0.51447 0.00010 0.0
C1 C 0.01577 0.50993 0.00010 0.0
C2 C 0.02371 0.50769 0.97199 0.0
C3 C 0.02372 0.50769 0.03001 0.0
C4 C 0.99172 0.51671 0.02995 0.0
C5 C 0.99171 0.51671 0.97192 0.0
C6 C 0.01945 0.49131 0.95666 0.0
C7 C 0.02834 0.48881 0.92915 0.0
C8 C 0.03959 0.50321 0.91399 0.0
C9 C 0.04385 0.51958 0.92932 0.0
C10 C 0.03496 0.52209 0.95683 0.0
C11 C 0.01947 0.49131 0.04518 0.0
C12 C 0.02836 0.48880 0.07273 0.0
C13 C 0.03962 0.50320 0.08807 0.0
C14 C 0.04387 0.51958 0.07289 0.0
C15 C 0.03497 0.52209 0.04535 0.0
C16 C 0.99598 0.53308 0.04528 0.0
C17 C 0.98709 0.53559 0.07279 0.0
C18 C 0.97584 0.52118 0.08794 0.0
C19 C 0.97159 0.50481 0.07262 0.0
C20 C 0.98047 0.50230 0.04511 0.0
C21 C 0.99597 0.53309 0.95675 0.0
C22 C 0.98707 0.53559 0.92921 0.0
C23 C 0.97581 0.52119 0.91387 0.0
C24 C 0.97156 0.50481 0.92904 0.0
C25 C 0.98046 0.50231 0.95659 0.0
H26 H 0.00965 0.48102 0.96584 0.0
H27 H 0.02663 0.47623 0.91984 0.0
H28 H 0.05365 0.52989 0.92018 0.0
H29 H 0.03667 0.53466 0.96613 0.0
H30 H 0.00966 0.48102 0.03586 0.0
H31 H 0.02665 0.47623 0.08193 0.0
H32 H 0.03668 0.53466 0.03616 0.0
H33 H 0.00579 0.54337 0.03610 0.0
H34 H 0.98880 0.54816 0.08209 0.0
H35 H 0.96178 0.49450 0.08176 0.0
H36 H 0.97876 0.48973 0.03580 0.0
H37 H 0.00577 0.54338 0.96607 0.0
H38 H 0.98878 0.54817 0.92001 0.0
H39 H 0.96176 0.49451 0.91976 0.0
H40 H 0.97875 0.48973 0.96578 0.0
H41 H 0.05367 0.52989 0.08218 0.0
C42 C 0.50983 0.01570 0.00010 0.0
C43 C 0.51436 0.99990 0.00010 0.0
C44 C 0.51660 0.99165 0.02995 0.0
C45 C 0.51660 0.99164 0.97192 0.0
C46 C 0.50759 0.02364 0.97198 0.0
C47 C 0.50759 0.02365 0.03001 0.0
C48 C 0.53297 0.99590 0.04528 0.0
C49 C 0.53547 0.98701 0.07278 0.0
C50 C 0.52106 0.97576 0.08794 0.0
C51 C 0.50469 0.97152 0.07261 0.0
C52 C 0.50219 0.98041 0.04511 0.0
C53 C 0.53298 0.99588 0.95675 0.0
C54 C 0.53548 0.98698 0.92920 0.0
C55 C 0.52107 0.97574 0.91386 0.0
C56 C 0.50469 0.97149 0.92904 0.0
C57 C 0.50219 0.98039 0.95658 0.0
C58 C 0.49122 0.01940 0.95666 0.0
C59 C 0.48872 0.02829 0.92915 0.0
C60 C 0.50313 0.03953 0.91399 0.0
C61 C 0.51950 0.04378 0.92932 0.0
C62 C 0.52200 0.03489 0.95683 0.0
C63 C 0.49121 0.01941 0.04518 0.0
C64 C 0.48871 0.02831 0.07273 0.0
C65 C 0.50312 0.03956 0.08807 0.0
C66 C 0.51950 0.04380 0.07289 0.0
C67 C 0.52200 0.03490 0.04535 0.0
H68 H 0.54327 0.00570 0.03609 0.0
H69 H 0.54805 0.98871 0.08209 0.0
H70 H 0.49438 0.96172 0.08176 0.0
H71 H 0.48961 0.97870 0.03580 0.0
H72 H 0.54327 0.00569 0.96607 0.0
H73 H 0.54805 0.98869 0.92001 0.0
H74 H 0.48962 0.97869 0.96578 0.0
H75 H 0.48092 0.00959 0.96584 0.0
H76 H 0.47615 0.02658 0.91984 0.0
H77 H 0.52981 0.05357 0.92018 0.0
H78 H 0.53458 0.03659 0.96613 0.0
H79 H 0.48092 0.00961 0.03586 0.0
H80 H 0.47614 0.02660 0.08192 0.0
H81 H 0.52981 0.05360 0.08218 0.0
H82 H 0.53457 0.03660 0.03616 0.0
H83 H 0.49438 0.96169 0.91976 0.0
H84 H 0.53617 0.51116 0.54252 0.0
H85 H 0.56351 0.51612 0.54444 0.0
H86 H 0.56357 0.51637 0.45859 0.0
H87 H 0.53615 0.51099 0.45956 0.0
H88 H 0.51105 0.53602 0.45933 0.0
H89 H 0.51600 0.56336 0.45740 0.0
H90 H 0.51651 0.56367 0.54324 0.0
H91 H 0.51112 0.53624 0.54229 0.0
H92 H 0.47793 0.51359 0.53790 0.0
H93 H 0.45107 0.51139 0.53765 0.0
H94 H 0.44783 0.48614 0.46411 0.0
H95 H 0.47505 0.48990 0.46582 0.0
H96 H 0.51383 0.49698 0.56245 0.0
H97 H 0.51351 0.47781 0.46397 0.0
H98 H 0.51133 0.45095 0.46422 0.0
H99 H 0.48628 0.44792 0.53778 0.0
H100 H 0.49003 0.47513 0.53606 0.0
H101 H 0.49682 0.51362 0.43941 0.0
C102 C 0.54175 0.51200 0.52513 0.0
C103 C 0.55831 0.51496 0.52660 0.0
C104 C 0.56684 0.51613 0.50144 0.0
C105 C 0.55828 0.51504 0.47630 0.0
C106 C 0.54168 0.51195 0.47707 0.0
C107 C 0.51195 0.54165 0.47672 0.0
C108 C 0.51489 0.55821 0.47524 0.0
C109 C 0.51614 0.56681 0.50039 0.0
C110 C 0.51512 0.55832 0.52554 0.0
C111 C 0.51203 0.54172 0.52477 0.0
C112 C 0.47184 0.50825 0.52249 0.0
C113 C 0.45572 0.50696 0.52266 0.0
C114 C 0.44639 0.49888 0.49998 0.0
C115 C 0.45377 0.49212 0.47907 0.0
C116 C 0.47017 0.49430 0.48048 0.0
C117 C 0.50822 0.47176 0.47939 0.0
C118 C 0.50693 0.45564 0.47922 0.0
C119 C 0.49892 0.44638 0.50190 0.0
C120 C 0.49222 0.45381 0.52281 0.0
C121 C 0.49439 0.47021 0.52140 0.0
S122 S 0.50607 0.50577 0.55401 0.0
S123 S 0.50564 0.50589 0.44786 0.0
N124 N 0.53337 0.51032 0.50117 0.0
N125 N 0.51034 0.53334 0.50068 0.0
N126 N 0.47946 0.50236 0.50164 0.0
N127 N 0.50239 0.47943 0.50023 0.0
Fe128 Fe 0.50627 0.50625 0.50093 0.0
C129 C 0.11085 0.46580 0.30878 0.0
C130 C 0.10999 0.45064 0.32692 0.0
C131 C 0.12120 0.45151 0.35319 0.0
C132 C 0.12052 0.43644 0.37150 0.0
C133 C 0.13182 0.43742 0.39771 0.0
C134 C 0.14377 0.45345 0.40550 0.0
C135 C 0.14440 0.46851 0.38727 0.0
C136 C 0.13312 0.46753 0.36110 0.0
C137 C 0.15088 0.43951 0.44928 0.0
C138 C 0.16187 0.44427 0.47573 0.0
C139 C 0.17919 0.44269 0.47465 0.0
C140 C 0.19101 0.45033 0.49881 0.0
C141 C 0.18505 0.45776 0.52560 0.0
C142 C 0.16731 0.45793 0.52783 0.0
C143 C 0.15571 0.45120 0.50283 0.0
C144 C 0.13829 0.45257 0.50392 0.0
C145 C 0.18499 0.43470 0.44833 0.0
C146 C 0.19699 0.46551 0.54957 0.0
C147 C 0.20884 0.45079 0.49614 0.0
C148 C 0.23512 0.46992 0.48905 0.0
C149 C 0.24185 0.45528 0.49390 0.0
C150 C 0.26010 0.45747 0.49553 0.0
C151 C 0.27158 0.47429 0.49232 0.0
C152 C 0.26483 0.48892 0.48722 0.0
C153 C 0.24658 0.48673 0.48559 0.0
C154 C 0.28981 0.47644 0.49426 0.0
C155 C 0.29646 0.46176 0.49948 0.0
C156 C 0.16130 0.46564 0.55415 0.0
C157 C 0.14976 0.45878 0.60242 0.0
C158 C 0.14911 0.47640 0.60443 0.0
C159 C 0.13909 0.48161 0.62830 0.0
C160 C 0.12971 0.46918 0.65003 0.0
C161 C 0.13041 0.45157 0.64803 0.0
C162 C 0.14045 0.44637 0.62420 0.0
C163 C 0.11955 0.47428 0.67375 0.0
C164 C 0.11011 0.46172 0.69520 0.0
O165 O 0.15473 0.45458 0.43127 0.0
O166 O 0.15891 0.45350 0.57823 0.0
O167 O 0.21726 0.46785 0.48840 0.0
H168 H 0.11976 0.47759 0.31488 0.0
H169 H 0.10110 0.43883 0.32089 0.0
H170 H 0.11168 0.42457 0.36566 0.0
H171 H 0.13133 0.42630 0.41132 0.0
H172 H 0.15322 0.48038 0.39317 0.0
H173 H 0.13360 0.47867 0.34755 0.0
H174 H 0.15376 0.42915 0.43694 0.0
H175 H 0.13777 0.43629 0.45627 0.0
H176 H 0.13695 0.46072 0.52269 0.0
H177 H 0.12978 0.44018 0.50712 0.0
H178 H 0.13530 0.45789 0.48269 0.0
H179 H 0.17670 0.43474 0.42908 0.0
H180 H 0.18473 0.42178 0.45403 0.0
H181 H 0.19776 0.44147 0.44249 0.0
H182 H 0.19056 0.47107 0.56667 0.0
H183 H 0.20709 0.47522 0.53960 0.0
H184 H 0.20222 0.45601 0.56001 0.0
H185 H 0.21350 0.44747 0.51777 0.0
H186 H 0.21072 0.44224 0.47842 0.0
H187 H 0.23333 0.44284 0.49640 0.0
H188 H 0.26512 0.44664 0.49919 0.0
H189 H 0.27333 0.50137 0.48473 0.0
H190 H 0.24154 0.49756 0.48194 0.0
H191 H 0.29837 0.48887 0.49187 0.0
H192 H 0.28787 0.44935 0.50185 0.0
H193 H 0.17036 0.47719 0.56094 0.0
H194 H 0.14935 0.46824 0.54852 0.0
H195 H 0.15595 0.48553 0.58815 0.0
H196 H 0.13855 0.49464 0.62982 0.0
H197 H 0.12345 0.44239 0.66414 0.0
H198 H 0.14090 0.43332 0.62255 0.0
H199 H 0.11898 0.48730 0.67542 0.0
H200 H 0.11071 0.44871 0.69345 0.0
C201 C 0.46463 0.11052 0.30878 0.0
C202 C 0.47972 0.11776 0.32705 0.0
C203 C 0.47864 0.12844 0.35332 0.0
C204 C 0.49365 0.13581 0.37176 0.0
C205 C 0.49245 0.14653 0.39796 0.0
C206 C 0.47627 0.14986 0.40560 0.0
C207 C 0.46127 0.14245 0.38723 0.0
C208 C 0.46247 0.13176 0.36107 0.0
C209 C 0.49000 0.16437 0.44951 0.0
C210 C 0.48506 0.17277 0.47592 0.0
C211 C 0.48630 0.19084 0.47485 0.0
C212 C 0.47846 0.19852 0.49894 0.0
C213 C 0.47119 0.18863 0.52566 0.0
C214 C 0.47136 0.17089 0.52789 0.0
C215 C 0.47828 0.16295 0.50295 0.0
C216 C 0.47726 0.14488 0.50403 0.0
C217 C 0.49413 0.20087 0.44861 0.0
C218 C 0.46325 0.19637 0.54956 0.0
C219 C 0.47766 0.21601 0.49626 0.0
C220 C 0.45812 0.23194 0.48899 0.0
C221 C 0.47256 0.24646 0.49398 0.0
C222 C 0.47003 0.26344 0.49559 0.0
C223 C 0.45307 0.26588 0.49222 0.0
C224 C 0.43864 0.25135 0.48699 0.0
C225 C 0.44117 0.23437 0.48538 0.0
C226 C 0.45058 0.28287 0.49414 0.0
C227 C 0.46506 0.29732 0.49950 0.0
C228 C 0.46381 0.16079 0.55414 0.0
C229 C 0.47085 0.15298 0.60247 0.0
C230 C 0.45334 0.14293 0.60432 0.0
C231 C 0.44835 0.13018 0.62814 0.0
C232 C 0.46090 0.12748 0.64999 0.0
C233 C 0.47840 0.13758 0.64815 0.0
C234 C 0.48338 0.15034 0.62437 0.0
C235 C 0.45602 0.11465 0.67367 0.0
C236 C 0.46870 0.11197 0.69523 0.0
O237 O 0.47494 0.16017 0.43136 0.0
O238 O 0.47593 0.16490 0.57833 0.0
O239 O 0.46053 0.21528 0.48837 0.0
H240 H 0.45272 0.11309 0.31477 0.0
H241 H 0.49165 0.11522 0.32113 0.0
H242 H 0.50562 0.13335 0.36603 0.0
H243 H 0.50353 0.15198 0.41168 0.0
H244 H 0.44929 0.14489 0.39302 0.0
H245 H 0.45138 0.12629 0.34742 0.0
H246 H 0.50025 0.17277 0.43727 0.0
H247 H 0.49346 0.15306 0.45653 0.0
H248 H 0.46918 0.13920 0.52273 0.0
H249 H 0.48975 0.14303 0.50735 0.0
H250 H 0.47202 0.13907 0.48275 0.0
H251 H 0.49425 0.19261 0.42935 0.0
H252 H 0.50699 0.20751 0.45442 0.0
H253 H 0.48714 0.20996 0.44270 0.0
H254 H 0.45784 0.18700 0.56661 0.0
H255 H 0.45339 0.20123 0.53950 0.0
H256 H 0.47259 0.20664 0.56009 0.0
H257 H 0.48088 0.22243 0.51792 0.0
H258 H 0.48613 0.22244 0.47862 0.0
H259 H 0.48510 0.24462 0.49660 0.0
H260 H 0.48070 0.27421 0.49935 0.0
H261 H 0.42609 0.25317 0.48439 0.0
H262 H 0.43050 0.22358 0.48164 0.0
H263 H 0.43805 0.28475 0.49163 0.0
H264 H 0.47757 0.29540 0.50199 0.0
H265 H 0.45214 0.16364 0.56083 0.0
H266 H 0.46145 0.14752 0.54849 0.0
H267 H 0.44412 0.14486 0.58796 0.0
H268 H 0.43539 0.12269 0.62955 0.0
H269 H 0.48767 0.13555 0.66435 0.0
H270 H 0.49635 0.15775 0.62284 0.0
H271 H 0.44308 0.10714 0.67522 0.0
H272 H 0.48163 0.11950 0.69360 0.0
C273 C 0.90388 0.55866 0.69315 0.0
C274 C 0.89691 0.54350 0.67488 0.0
C275 C 0.88615 0.54437 0.64861 0.0
C276 C 0.87903 0.52930 0.63017 0.0
C277 C 0.86825 0.53028 0.60397 0.0
C278 C 0.86458 0.54631 0.59632 0.0
C279 C 0.87174 0.56137 0.61470 0.0
C280 C 0.88251 0.56039 0.64086 0.0
C281 C 0.85027 0.53237 0.55241 0.0
C282 C 0.84173 0.53713 0.52601 0.0
C283 C 0.82359 0.53555 0.52707 0.0
C284 C 0.81573 0.54319 0.50298 0.0
C285 C 0.82553 0.55062 0.47626 0.0
C286 C 0.84336 0.55079 0.47403 0.0
C287 C 0.85147 0.54406 0.49897 0.0
C288 C 0.86960 0.54543 0.49790 0.0
C289 C 0.81366 0.52756 0.55332 0.0
C290 C 0.81759 0.55837 0.45236 0.0
C291 C 0.79813 0.54365 0.50566 0.0
C292 C 0.78175 0.56278 0.51292 0.0
C293 C 0.76744 0.54814 0.50794 0.0
C294 C 0.75032 0.55032 0.50632 0.0
C295 C 0.74755 0.56715 0.50969 0.0
C296 C 0.76187 0.58178 0.51492 0.0
C297 C 0.77898 0.57959 0.51653 0.0
C298 C 0.73043 0.56929 0.50777 0.0
C299 C 0.71619 0.55461 0.50241 0.0
C300 C 0.85335 0.55850 0.44778 0.0
C301 C 0.86135 0.55164 0.39945 0.0
C302 C 0.87111 0.56926 0.39761 0.0
C303 C 0.88382 0.57447 0.37378 0.0
C304 C 0.88677 0.56204 0.35194 0.0
C305 C 0.87697 0.54443 0.35378 0.0
C306 C 0.86424 0.53923 0.37756 0.0
C307 C 0.89957 0.56714 0.32826 0.0
C308 C 0.90251 0.55458 0.30670 0.0
O309 O 0.85420 0.54744 0.57056 0.0
O310 O 0.84946 0.54636 0.42359 0.0
O311 O 0.79854 0.56070 0.51355 0.0
H312 H 0.90107 0.57045 0.68716 0.0
H313 H 0.89969 0.53169 0.68080 0.0
H314 H 0.88174 0.51743 0.63590 0.0
H315 H 0.86298 0.51916 0.59025 0.0
H316 H 0.86905 0.57324 0.60890 0.0
H317 H 0.88778 0.57153 0.65450 0.0
H318 H 0.84203 0.52201 0.56466 0.0
H319 H 0.86170 0.52915 0.54540 0.0
H320 H 0.87516 0.55358 0.47920 0.0
H321 H 0.87171 0.53304 0.49458 0.0
H322 H 0.87534 0.55075 0.51918 0.0
H323 H 0.82197 0.52760 0.57257 0.0
H324 H 0.80725 0.51464 0.54751 0.0
H325 H 0.80440 0.53433 0.55922 0.0
H326 H 0.82690 0.56393 0.43531 0.0
H327 H 0.81252 0.56808 0.46242 0.0
H328 H 0.80746 0.54887 0.44183 0.0
H329 H 0.79175 0.54032 0.48400 0.0
H330 H 0.79184 0.53510 0.52330 0.0
H331 H 0.76953 0.53570 0.50532 0.0
H332 H 0.73971 0.53950 0.50256 0.0
H333 H 0.75980 0.59423 0.51752 0.0
H334 H 0.78962 0.59041 0.52028 0.0
H335 H 0.72830 0.58172 0.51027 0.0
H336 H 0.71836 0.54220 0.49992 0.0
H337 H 0.85027 0.57005 0.44110 0.0
H338 H 0.86665 0.56110 0.45344 0.0
H339 H 0.86899 0.57839 0.41397 0.0
H340 H 0.89110 0.58750 0.37238 0.0
H341 H 0.87918 0.53525 0.33758 0.0
H342 H 0.85704 0.52618 0.37908 0.0
H343 H 0.90687 0.58016 0.32671 0.0
H344 H 0.89519 0.54157 0.30833 0.0
C345 C 0.55729 0.90351 0.69314 0.0
C346 C 0.57239 0.90408 0.67501 0.0
C347 C 0.57131 0.89284 0.64873 0.0
C348 C 0.58632 0.89323 0.63042 0.0
C349 C 0.58512 0.88189 0.60421 0.0
C350 C 0.56894 0.87020 0.59642 0.0
C351 C 0.55394 0.86985 0.61466 0.0
C352 C 0.55514 0.88116 0.64083 0.0
C353 C 0.58267 0.86278 0.55264 0.0
C354 C 0.57773 0.85182 0.52619 0.0
C355 C 0.57896 0.83439 0.52727 0.0
C356 C 0.57113 0.82267 0.50310 0.0
C357 C 0.56385 0.82880 0.47632 0.0
C358 C 0.56403 0.84663 0.47409 0.0
C359 C 0.57095 0.85815 0.49909 0.0
C360 C 0.56992 0.87568 0.49800 0.0
C361 C 0.58680 0.82841 0.55358 0.0
C362 C 0.55591 0.81695 0.45234 0.0
C363 C 0.57033 0.80476 0.50577 0.0
C364 C 0.55078 0.77873 0.51286 0.0
C365 C 0.56522 0.77168 0.50801 0.0
C366 C 0.56269 0.75338 0.50637 0.0
C367 C 0.54573 0.74218 0.50959 0.0
C368 C 0.53131 0.74925 0.51469 0.0
C369 C 0.53384 0.76754 0.51632 0.0
C370 C 0.54324 0.72390 0.50765 0.0
C371 C 0.55772 0.71694 0.50242 0.0
C372 C 0.55648 0.85282 0.44777 0.0
C373 C 0.56352 0.86428 0.39950 0.0
C374 C 0.54601 0.86527 0.39750 0.0
C375 C 0.54102 0.87545 0.37363 0.0
C376 C 0.55357 0.88463 0.35190 0.0
C377 C 0.57107 0.88358 0.35390 0.0
C378 C 0.57605 0.87339 0.37772 0.0
C379 C 0.54869 0.89494 0.32817 0.0
C380 C 0.56137 0.90417 0.30673 0.0
O381 O 0.56761 0.85920 0.57065 0.0
O382 O 0.56860 0.85498 0.42369 0.0
O383 O 0.55319 0.79663 0.51351 0.0
H384 H 0.54539 0.89479 0.68704 0.0
H385 H 0.58432 0.91278 0.68103 0.0
H386 H 0.59829 0.90188 0.63626 0.0
H387 H 0.59620 0.88217 0.59060 0.0
H388 H 0.54196 0.86122 0.60876 0.0
H389 H 0.54405 0.88090 0.65438 0.0
H390 H 0.59292 0.85968 0.56498 0.0
H391 H 0.58613 0.87589 0.54565 0.0
H392 H 0.56184 0.87719 0.47923 0.0
H393 H 0.58241 0.88399 0.49480 0.0
H394 H 0.56469 0.87879 0.51924 0.0
H395 H 0.58691 0.83674 0.57283 0.0
H396 H 0.59965 0.82843 0.54789 0.0
H397 H 0.57981 0.81571 0.55942 0.0
H398 H 0.55051 0.82352 0.43524 0.0
H399 H 0.54606 0.80700 0.46232 0.0
H400 H 0.56526 0.81151 0.44190 0.0
H401 H 0.57354 0.80001 0.48415 0.0
H402 H 0.57880 0.80271 0.52349 0.0
H403 H 0.57776 0.78000 0.50551 0.0
H404 H 0.57336 0.74813 0.50271 0.0
H405 H 0.51876 0.74094 0.51718 0.0
H406 H 0.52317 0.77281 0.51997 0.0
H407 H 0.53071 0.71554 0.51004 0.0
H408 H 0.57023 0.72532 0.50005 0.0
H409 H 0.54481 0.84394 0.44098 0.0
H410 H 0.55412 0.86487 0.45340 0.0
H411 H 0.53679 0.85857 0.41378 0.0
H412 H 0.52806 0.87624 0.37211 0.0
H413 H 0.58034 0.89040 0.33778 0.0
H414 H 0.58902 0.87269 0.37937 0.0
H415 H 0.53575 0.89576 0.32651 0.0
H416 H 0.57430 0.90332 0.30848 0.0
C417 C 0.39116 0.48565 0.50065 0.0
C418 C 0.38306 0.48346 0.47062 0.0
C419 C 0.36460 0.47840 0.47069 0.0
C420 C 0.35665 0.47621 0.50078 0.0
C421 C 0.36449 0.49226 0.51585 0.0
C422 C 0.38295 0.49731 0.51578 0.0
C423 C 0.38340 0.46960 0.51563 0.0
C424 C 0.36493 0.46455 0.51570 0.0
C425 C 0.40962 0.49069 0.50057 0.0
C426 C 0.42809 0.49571 0.50046 0.0
C427 C 0.33819 0.47115 0.50083 0.0
C428 C 0.31972 0.46608 0.50089 0.0
H429 H 0.39070 0.48556 0.45018 0.0
H430 H 0.35771 0.47652 0.44933 0.0
H431 H 0.35667 0.49957 0.52614 0.0
H432 H 0.38965 0.50904 0.52651 0.0
H433 H 0.39127 0.46229 0.52575 0.0
H434 H 0.35829 0.45282 0.52636 0.0
C435 C 0.48564 0.39115 0.50119 0.0
C436 C 0.49943 0.38289 0.50284 0.0
C437 C 0.49440 0.36442 0.50278 0.0
C438 C 0.47623 0.35665 0.50104 0.0
C439 C 0.47119 0.36478 0.47423 0.0
C440 C 0.47622 0.38324 0.47431 0.0
C441 C 0.47471 0.38327 0.52629 0.0
C442 C 0.46967 0.36481 0.52621 0.0
C443 C 0.49069 0.40962 0.50129 0.0
C444 C 0.49574 0.42808 0.50142 0.0
C445 C 0.47120 0.33819 0.50098 0.0
C446 C 0.46616 0.31972 0.50094 0.0
H447 H 0.51239 0.39042 0.50402 0.0
H448 H 0.50390 0.35741 0.50397 0.0
H449 H 0.46417 0.35716 0.45597 0.0
H450 H 0.47294 0.39015 0.45524 0.0
H451 H 0.47087 0.39106 0.54340 0.0
H452 H 0.46158 0.35807 0.54407 0.0
C453 C 0.62220 0.53155 0.50068 0.0
C454 C 0.63042 0.52917 0.47204 0.0
C455 C 0.64887 0.53471 0.47211 0.0
C456 C 0.65668 0.54187 0.50083 0.0
C457 C 0.64914 0.52874 0.52291 0.0
C458 C 0.63069 0.52322 0.52283 0.0
C459 C 0.62953 0.54944 0.50729 0.0
C460 C 0.64798 0.55496 0.50737 0.0
C461 C 0.60375 0.52603 0.50058 0.0
C462 C 0.58530 0.52053 0.50045 0.0
C463 C 0.67513 0.54740 0.50090 0.0
C464 C 0.69358 0.55294 0.50095 0.0
H465 H 0.62287 0.52363 0.45252 0.0
H466 H 0.65585 0.53336 0.45172 0.0
H467 H 0.65715 0.52375 0.53796 0.0
H468 H 0.62420 0.51354 0.53854 0.0
H469 H 0.62138 0.55766 0.51171 0.0
H470 H 0.65432 0.56803 0.51208 0.0
C471 C 0.53155 0.62216 0.50118 0.0
C472 C 0.52140 0.63077 0.51950 0.0
C473 C 0.52692 0.64922 0.51944 0.0
C474 C 0.54184 0.65664 0.50106 0.0
C475 C 0.53729 0.64865 0.47130 0.0
C476 C 0.53178 0.63020 0.47136 0.0
C477 C 0.54865 0.62957 0.51258 0.0
C478 C 0.55415 0.64802 0.51252 0.0
C479 C 0.52604 0.60371 0.50126 0.0
C480 C 0.52053 0.58526 0.50139 0.0
C481 C 0.54736 0.67509 0.50102 0.0
C482 C 0.55288 0.69354 0.50100 0.0
H483 H 0.51058 0.62348 0.53198 0.0
H484 H 0.52003 0.65647 0.53249 0.0
H485 H 0.53812 0.65635 0.45104 0.0
H486 H 0.52820 0.62338 0.45018 0.0
H487 H 0.55634 0.62147 0.52038 0.0
H488 H 0.56666 0.65441 0.52063 0.0
C489 C 0.04767 0.49934 0.88457 0.0
C490 C 0.05607 0.49413 0.85827 0.0
C491 C 0.06448 0.48893 0.83197 0.0
C492 C 0.06334 0.47104 0.82679 0.0
C493 C 0.07175 0.46585 0.80049 0.0
C494 C 0.08132 0.47854 0.77939 0.0
C495 C 0.08246 0.49643 0.78456 0.0
C496 C 0.07404 0.50162 0.81085 0.0
C497 C 0.08973 0.47334 0.75309 0.0
C498 C 0.09815 0.46816 0.72678 0.0
H499 H 0.05627 0.46165 0.84243 0.0
H500 H 0.07088 0.45260 0.79664 0.0
H501 H 0.08955 0.50583 0.76893 0.0
H502 H 0.07489 0.51486 0.81468 0.0
C503 C 0.49929 0.04762 0.88458 0.0
C504 C 0.49413 0.05605 0.85826 0.0
C505 C 0.48895 0.06447 0.83196 0.0
C506 C 0.50007 0.08014 0.82038 0.0
C507 C 0.49490 0.08857 0.79407 0.0
C508 C 0.47859 0.08133 0.77938 0.0
C509 C 0.46747 0.06565 0.79096 0.0
C510 C 0.47265 0.05722 0.81725 0.0
C511 C 0.47342 0.08975 0.75307 0.0
C512 C 0.46823 0.09816 0.72677 0.0
H513 H 0.51213 0.08551 0.83127 0.0
H514 H 0.50313 0.10016 0.78547 0.0
H515 H 0.45540 0.06029 0.78007 0.0
H516 H 0.46442 0.04562 0.82582 0.0
C517 C 0.96766 0.52498 0.11745 0.0
C518 C 0.95914 0.53003 0.14375 0.0
C519 C 0.95059 0.53507 0.17002 0.0
C520 C 0.95229 0.52807 0.20017 0.0
C521 C 0.94375 0.53312 0.22644 0.0
C522 C 0.93350 0.54516 0.22256 0.0
C523 C 0.93180 0.55217 0.19241 0.0
C524 C 0.94035 0.54713 0.16614 0.0
C525 C 0.92496 0.55021 0.24884 0.0
C526 C 0.91641 0.55527 0.27509 0.0
H527 H 0.95986 0.51914 0.20304 0.0
H528 H 0.94502 0.52795 0.24876 0.0
H529 H 0.92422 0.56108 0.18955 0.0
H530 H 0.93910 0.55231 0.14383 0.0
C531 C 0.52486 0.96759 0.11744 0.0
C532 C 0.52991 0.95906 0.14374 0.0
C533 C 0.53496 0.95052 0.17001 0.0
C534 C 0.54571 0.96036 0.19377 0.0
C535 C 0.55076 0.95182 0.22005 0.0
C536 C 0.54506 0.93344 0.22255 0.0
C537 C 0.53430 0.92360 0.19879 0.0
C538 C 0.52924 0.93214 0.17253 0.0
C539 C 0.55010 0.92490 0.24883 0.0
C540 C 0.55514 0.91634 0.27509 0.0
H541 H 0.54995 0.97397 0.19190 0.0
H542 H 0.55871 0.95911 0.23765 0.0
H543 H 0.53007 0.90999 0.20065 0.0
H544 H 0.52127 0.92485 0.15495 0.0
C545 C 0.49927 0.04764 0.11751 0.0
C546 C 0.49410 0.05606 0.14385 0.0
C547 C 0.48892 0.06449 0.17016 0.0
C548 C 0.48074 0.05455 0.19617 0.0
C549 C 0.47557 0.06298 0.22249 0.0
C550 C 0.47856 0.08136 0.22278 0.0
C551 C 0.48674 0.09130 0.19677 0.0
C552 C 0.49193 0.08287 0.17047 0.0
C553 C 0.47338 0.08979 0.24911 0.0
C554 C 0.46821 0.09823 0.27541 0.0
H555 H 0.47851 0.04094 0.19595 0.0
H556 H 0.46952 0.05562 0.24176 0.0
H557 H 0.48896 0.10491 0.19700 0.0
H558 H 0.49799 0.09023 0.15121 0.0
C559 C 0.04771 0.49934 0.11752 0.0
C560 C 0.05612 0.49415 0.14386 0.0
C561 C 0.06454 0.48896 0.17017 0.0
C562 C 0.06594 0.49840 0.19881 0.0
C563 C 0.07436 0.49321 0.22513 0.0
C564 C 0.08139 0.47858 0.22278 0.0
C565 C 0.07999 0.46913 0.19414 0.0
C566 C 0.07156 0.47432 0.16784 0.0
C567 C 0.08981 0.47338 0.24910 0.0
C568 C 0.09823 0.46818 0.27539 0.0
H569 H 0.06075 0.50925 0.20054 0.0
H570 H 0.07538 0.50019 0.24634 0.0
H571 H 0.08519 0.45830 0.19242 0.0
H572 H 0.07051 0.46732 0.14663 0.0
C573 C 0.96762 0.52500 0.88436 0.0
C574 C 0.95908 0.53006 0.85808 0.0
C575 C 0.95053 0.53511 0.83179 0.0
C576 C 0.94382 0.54996 0.83379 0.0
C577 C 0.93527 0.55501 0.80750 0.0
C578 C 0.93342 0.54519 0.77922 0.0
C579 C 0.94012 0.53034 0.77722 0.0
C580 C 0.94868 0.52530 0.80350 0.0
C581 C 0.92487 0.55025 0.75293 0.0
C582 C 0.91632 0.55528 0.72663 0.0
H583 H 0.94518 0.55722 0.85473 0.0
H584 H 0.93032 0.56601 0.80897 0.0
H585 H 0.93875 0.52308 0.75628 0.0
H586 H 0.95365 0.51431 0.80202 0.0
C587 C 0.52486 0.96754 0.88436 0.0
C588 C 0.52990 0.95897 0.85808 0.0
C589 C 0.53494 0.95042 0.83179 0.0
C590 C 0.53660 0.93316 0.83480 0.0
C591 C 0.54164 0.92461 0.80851 0.0
C592 C 0.54505 0.93333 0.77922 0.0
C593 C 0.54339 0.95059 0.77621 0.0
C594 C 0.53833 0.95913 0.80249 0.0
C595 C 0.55009 0.92478 0.75293 0.0
C596 C 0.55514 0.91624 0.72662 0.0
H597 H 0.53410 0.92671 0.85649 0.0
H598 H 0.54285 0.91183 0.81073 0.0
H599 H 0.54590 0.95704 0.75452 0.0
H600 H 0.53710 0.97191 0.80026 0.0
