data_{}
_symmetry_space_group_name_H-M    P1
_symmetry_Int_Tables_number       1
_symmetry_cell_setting            triclinic
loop_
_symmetry_equiv_pos_as_xyz
'x, y, z'
_cell_length_a     76.576
_cell_length_b     80.937
_cell_length_c     47.206
_cell_angle_alpha  89.998
_cell_angle_beta   90.126
_cell_angle_gamma  123.683
loop_
_atom_site_label
_atom_site_type_symbol
_atom_site_fract_x
_atom_site_fract_y
_atom_site_fract_z
_atom_type_partial_charge
C0 C 0.04322 0.03547 0.00010 0.0
C1 C 0.03368 0.04631 0.00146 0.0
C2 C 0.01251 0.03621 0.99990 0.0
C3 C 0.99990 0.01525 0.99664 0.0
C4 C 0.00992 0.00547 0.99590 0.0
C5 C 0.03116 0.01504 0.99704 0.0
C6 C 0.07482 0.03655 0.00253 0.0
C7 C 0.01254 0.06580 0.00376 0.0
C8 C 0.97751 0.97275 0.99858 0.0
H9 H 0.04197 0.06034 0.00371 0.0
H10 H 0.98490 0.00823 0.99533 0.0
H11 H 0.03759 0.00784 0.99577 0.0
H12 H 0.06998 0.02720 0.01868 0.0
H13 H 0.07141 0.02884 0.98476 0.0
H14 H 0.02017 0.06957 0.02206 0.0
O15 O 0.06461 0.04668 0.00288 0.0
O16 O 0.00135 0.04471 0.99990 0.0
H17 H 0.02280 0.07294 0.98837 0.0
O18 O 0.99990 0.98489 0.99265 0.0
H19 H 0.97377 0.97895 0.01336 0.0
H20 H 0.96923 0.97085 0.98132 0.0
C21 C 0.88519 0.33144 0.81692 0.0
C22 C 0.86920 0.31324 0.83465 0.0
C23 C 0.87677 0.30709 0.86033 0.0
C24 C 0.86099 0.28889 0.87823 0.0
C25 C 0.86874 0.28282 0.90384 0.0
C26 C 0.89223 0.29496 0.91144 0.0
C27 C 0.90798 0.31318 0.89361 0.0
C28 C 0.90025 0.31923 0.86804 0.0
C29 C 0.88225 0.27313 0.95423 0.0
C30 C 0.89367 0.27193 0.98008 0.0
C31 C 0.90239 0.25881 0.97900 0.0
C32 C 0.91724 0.26066 0.00260 0.0
C33 C 0.92127 0.27368 0.02880 0.0
C34 C 0.91085 0.28533 0.03101 0.0
C35 C 0.89706 0.28447 0.00658 0.0
C36 C 0.88806 0.29739 0.00767 0.0
C37 C 0.89770 0.24520 0.95326 0.0
C38 C 0.93630 0.27557 0.05223 0.0
C39 C 0.92835 0.24973 0.99990 0.0
C40 C 0.96356 0.25647 0.99300 0.0
C41 C 0.95264 0.23401 0.99773 0.0
C42 C 0.96576 0.22496 0.99990 0.0
C43 C 0.98978 0.23838 0.99615 0.0
C44 C 0.00010 0.26083 0.99117 0.0
C45 C 0.98756 0.26988 0.98960 0.0
C46 C 0.00286 0.22929 0.99802 0.0
C47 C 0.99184 0.20685 0.00312 0.0
C48 C 0.91513 0.29873 0.05675 0.0
C49 C 0.90125 0.29768 0.10396 0.0
C50 C 0.91884 0.31990 0.10592 0.0
C51 C 0.91818 0.33280 0.12927 0.0
C52 C 0.89989 0.32346 0.15053 0.0
C53 C 0.88234 0.30123 0.14857 0.0
C54 C 0.88302 0.28833 0.12526 0.0
C55 C 0.89903 0.33633 0.17374 0.0
C56 C 0.88058 0.32687 0.19472 0.0
O57 O 0.89993 0.28928 0.93662 0.0
O58 O 0.90132 0.28525 0.08030 0.0
O59 O 0.95079 0.26541 0.99239 0.0
H60 H 0.90254 0.34028 0.82287 0.0
H61 H 0.85184 0.30435 0.82877 0.0
H62 H 0.84360 0.27991 0.87253 0.0
H63 H 0.85709 0.26938 0.91715 0.0
H64 H 0.92536 0.32218 0.89936 0.0
H65 H 0.91190 0.33270 0.85479 0.0
H66 H 0.87340 0.25846 0.94216 0.0
H67 H 0.87114 0.27759 0.96108 0.0
H68 H 0.89558 0.30834 0.02602 0.0
H69 H 0.87034 0.28755 0.01081 0.0
H70 H 0.89170 0.30589 0.98691 0.0
H71 H 0.89280 0.25059 0.93445 0.0
H72 H 0.88435 0.22939 0.95883 0.0
H73 H 0.91223 0.24535 0.94753 0.0
H74 H 0.93814 0.28660 0.06895 0.0
H75 H 0.95224 0.28108 0.04246 0.0
H76 H 0.92973 0.26046 0.06243 0.0
H77 H 0.92774 0.24262 0.02111 0.0
H78 H 0.92075 0.23795 0.98264 0.0
H79 H 0.93486 0.22412 0.00010 0.0
H80 H 0.95771 0.20834 0.00288 0.0
H81 H 0.01847 0.27075 0.98873 0.0
H82 H 0.99560 0.28652 0.98605 0.0
H83 H 0.02065 0.23915 0.99567 0.0
H84 H 0.97405 0.19703 0.00545 0.0
H85 H 0.93233 0.30719 0.06338 0.0
H86 H 0.91065 0.30965 0.05126 0.0
H87 H 0.93225 0.32679 0.08999 0.0
H88 H 0.93116 0.34927 0.13076 0.0
H89 H 0.86882 0.29436 0.16434 0.0
H90 H 0.86998 0.27190 0.12366 0.0
H91 H 0.91198 0.35280 0.17537 0.0
H92 H 0.86766 0.31039 0.19301 0.0
C93 C 0.50677 0.18318 0.19172 0.0
C94 C 0.50182 0.16511 0.17392 0.0
C95 C 0.48700 0.15871 0.14822 0.0
C96 C 0.48183 0.14062 0.13025 0.0
C97 C 0.46693 0.13430 0.10461 0.0
C98 C 0.45723 0.14606 0.09706 0.0
C99 C 0.46246 0.16416 0.11496 0.0
C100 C 0.47732 0.17047 0.14055 0.0
C101 C 0.44198 0.12417 0.05417 0.0
C102 C 0.42901 0.12270 0.02832 0.0
C103 C 0.40494 0.10921 0.02935 0.0
C104 C 0.39203 0.11075 0.00575 0.0
C105 C 0.40309 0.12385 0.97960 0.0
C106 C 0.42718 0.13588 0.97745 0.0
C107 C 0.44015 0.13533 0.00187 0.0
C108 C 0.46429 0.14862 0.00010 0.0
C109 C 0.39386 0.09552 0.05503 0.0
C110 C 0.39006 0.12542 0.95619 0.0
C111 C 0.36808 0.09942 0.00834 0.0
C112 C 0.34023 0.10545 0.01533 0.0
C113 C 0.32520 0.08295 0.01051 0.0
C114 C 0.30138 0.07348 0.00889 0.0
C115 C 0.29265 0.08653 0.01211 0.0
C116 C 0.30769 0.10903 0.01717 0.0
C117 C 0.33151 0.11849 0.01878 0.0
C118 C 0.26883 0.07702 0.01020 0.0
C119 C 0.25390 0.05453 0.00501 0.0
C120 C 0.43843 0.14937 0.95176 0.0
C121 C 0.45128 0.14862 0.90455 0.0
C122 C 0.45927 0.17072 0.90267 0.0
C123 C 0.47495 0.18382 0.87937 0.0
C124 C 0.48262 0.17477 0.85808 0.0
C125 C 0.47456 0.15265 0.85995 0.0
C126 C 0.45887 0.13956 0.88320 0.0
C127 C 0.49844 0.18782 0.83492 0.0
C128 C 0.50613 0.17866 0.81390 0.0
O129 O 0.44284 0.14014 0.07185 0.0
O130 O 0.43676 0.13603 0.92816 0.0
O131 O 0.36357 0.11480 0.01598 0.0
H132 H 0.49948 0.19175 0.18580 0.0
H133 H 0.50908 0.15650 0.17976 0.0
H134 H 0.48901 0.13192 0.13591 0.0
H135 H 0.46310 0.12095 0.09125 0.0
H136 H 0.45531 0.17289 0.10924 0.0
H137 H 0.48117 0.18385 0.15385 0.0
H138 H 0.43389 0.10951 0.06619 0.0
H139 H 0.45842 0.12894 0.04734 0.0
H140 H 0.46940 0.15954 0.98253 0.0
H141 H 0.47080 0.13905 0.99765 0.0
H142 H 0.47048 0.15716 0.02163 0.0
H143 H 0.40509 0.10110 0.07387 0.0
H144 H 0.38900 0.07981 0.04940 0.0
H145 H 0.37931 0.09535 0.06076 0.0
H146 H 0.40101 0.13655 0.93950 0.0
H147 H 0.38032 0.13064 0.96597 0.0
H148 H 0.37915 0.11026 0.94592 0.0
H149 H 0.36042 0.09223 0.98717 0.0
H150 H 0.36208 0.08766 0.02562 0.0
H151 H 0.33171 0.07332 0.00801 0.0
H152 H 0.29022 0.05682 0.00526 0.0
H153 H 0.30121 0.11867 0.01965 0.0
H154 H 0.34270 0.13516 0.02240 0.0
H155 H 0.26227 0.08661 0.01258 0.0
H156 H 0.26052 0.04499 0.00264 0.0
H157 H 0.43083 0.15754 0.94516 0.0
H158 H 0.45565 0.16053 0.95729 0.0
H159 H 0.45370 0.17740 0.91863 0.0
H160 H 0.48094 0.20020 0.87795 0.0
H161 H 0.48027 0.14600 0.84415 0.0
H162 H 0.45299 0.12321 0.88475 0.0
H163 H 0.50446 0.20421 0.83336 0.0
H164 H 0.50007 0.16226 0.81555 0.0
C165 C 0.69516 0.55446 0.81622 0.0
C166 C 0.71483 0.56094 0.83407 0.0
C167 C 0.72027 0.57474 0.85974 0.0
C168 C 0.73993 0.58140 0.87776 0.0
C169 C 0.74526 0.59525 0.90336 0.0
C170 C 0.73095 0.60242 0.91083 0.0
C171 C 0.71127 0.59570 0.89287 0.0
C172 C 0.70595 0.58187 0.86731 0.0
C173 C 0.75369 0.61841 0.95374 0.0
C174 C 0.75382 0.62999 0.97954 0.0
C175 C 0.76611 0.65276 0.97847 0.0
C176 C 0.76288 0.66394 0.00202 0.0
C177 C 0.74949 0.65267 0.02815 0.0
C178 C 0.73883 0.63006 0.03036 0.0
C179 C 0.74097 0.61871 0.00599 0.0
C180 C 0.72890 0.59590 0.00707 0.0
C181 C 0.78015 0.66411 0.95280 0.0
C182 C 0.74620 0.66396 0.05151 0.0
C183 C 0.77276 0.68635 0.99990 0.0
C184 C 0.76274 0.71015 0.99224 0.0
C185 C 0.78620 0.72602 0.99710 0.0
C186 C 0.79402 0.74809 0.99865 0.0
C187 C 0.77837 0.75425 0.99535 0.0
C188 C 0.75492 0.73837 0.99026 0.0
C189 C 0.74710 0.71629 0.98871 0.0
C190 C 0.78623 0.77632 0.99720 0.0
C191 C 0.80968 0.79209 0.00242 0.0
C192 C 0.72504 0.61858 0.05604 0.0
C193 C 0.72738 0.60736 0.10330 0.0
C194 C 0.70355 0.59773 0.10512 0.0
C195 C 0.69071 0.58240 0.12843 0.0
C196 C 0.70175 0.57671 0.14979 0.0
C197 C 0.72560 0.58640 0.14798 0.0
C198 C 0.73843 0.60174 0.12471 0.0
C199 C 0.68898 0.56126 0.17296 0.0
C200 C 0.70015 0.55556 0.19405 0.0
O201 O 0.73590 0.61577 0.93600 0.0
O202 O 0.73979 0.62161 0.07968 0.0
O203 O 0.75500 0.68851 0.99165 0.0
H204 H 0.68470 0.55988 0.82207 0.0
H205 H 0.72533 0.55556 0.82829 0.0
H206 H 0.75052 0.57611 0.87216 0.0
H207 H 0.75978 0.60019 0.91676 0.0
H208 H 0.70066 0.60096 0.89853 0.0
H209 H 0.69141 0.57692 0.85398 0.0
H210 H 0.76917 0.62724 0.94175 0.0
H211 H 0.75027 0.60338 0.96062 0.0
H212 H 0.71727 0.59012 0.02535 0.0
H213 H 0.74039 0.59129 0.01032 0.0
H214 H 0.72007 0.58945 0.98627 0.0
H215 H 0.77522 0.65357 0.93399 0.0
H216 H 0.79719 0.67023 0.95847 0.0
H217 H 0.77864 0.67694 0.94702 0.0
H218 H 0.73501 0.65301 0.06819 0.0
H219 H 0.73921 0.67192 0.04166 0.0
H220 H 0.76191 0.67534 0.06179 0.0
H221 H 0.77992 0.69393 0.02054 0.0
H222 H 0.78524 0.69301 0.98212 0.0
H223 H 0.79774 0.72141 0.99990 0.0
H224 H 0.81137 0.75987 0.00231 0.0
H225 H 0.74335 0.74294 0.98771 0.0
H226 H 0.72974 0.70449 0.98506 0.0
H227 H 0.77472 0.78097 0.99475 0.0
H228 H 0.82115 0.78739 0.00486 0.0
H229 H 0.71499 0.62431 0.06257 0.0
H230 H 0.71455 0.60211 0.05053 0.0
H231 H 0.69541 0.60185 0.08912 0.0
H232 H 0.67305 0.57521 0.12981 0.0
H233 H 0.73372 0.58215 0.16382 0.0
H234 H 0.75606 0.60883 0.12321 0.0
H235 H 0.67132 0.55403 0.17448 0.0
H236 H 0.71782 0.56281 0.19244 0.0
O237 O 0.69108 0.36766 0.53898 0.0
Be238 Be 0.72754 0.36428 0.53609 0.0
Be239 Be 0.71394 0.38863 0.47268 0.0
O240 O 0.74008 0.35722 0.55467 0.0
Be241 Be 0.71395 0.38864 0.53604 0.0
O242 O 0.73839 0.36971 0.59502 0.0
O243 O 0.71332 0.40513 0.45415 0.0
Be244 Be 0.72753 0.36428 0.47273 0.0
O245 O 0.72231 0.39844 0.41382 0.0
O246 O 0.70244 0.34727 0.46964 0.0
O247 O 0.70246 0.34728 0.53902 0.0
O248 O 0.71333 0.40515 0.55457 0.0
O249 O 0.72235 0.39846 0.59496 0.0
H250 H 0.74410 0.39497 0.55268 0.0
H251 H 0.74409 0.39495 0.45625 0.0
O252 O 0.74006 0.35720 0.45425 0.0
O253 O 0.73836 0.36968 0.41388 0.0
H254 H 0.74482 0.36210 0.50447 0.0
H255 H 0.71894 0.40847 0.50438 0.0
O256 O 0.69107 0.36765 0.46960 0.0
O257 O 0.73172 0.38515 0.54388 0.0
O258 O 0.73171 0.38514 0.46497 0.0
O259 O 0.73357 0.36352 0.50443 0.0
O260 O 0.71569 0.39556 0.50437 0.0
C261 C 0.74285 0.35981 0.58153 0.0
C262 C 0.71639 0.40717 0.42730 0.0
C263 C 0.71641 0.40719 0.58143 0.0
C264 C 0.74282 0.35979 0.42740 0.0
C265 C 0.68790 0.35044 0.54191 0.0
C266 C 0.68789 0.35043 0.46666 0.0
C267 C 0.86751 0.35929 0.76125 0.0
C268 C 0.84800 0.34059 0.74854 0.0
C269 C 0.84224 0.31985 0.75750 0.0
C270 C 0.85601 0.31781 0.77914 0.0
C271 C 0.87553 0.33651 0.79184 0.0
C272 C 0.88128 0.35725 0.78289 0.0
C273 C 0.83426 0.34263 0.72683 0.0
C274 C 0.82054 0.34465 0.70509 0.0
C275 C 0.80682 0.34667 0.68331 0.0
C276 C 0.79313 0.34867 0.66148 0.0
C277 C 0.77944 0.35067 0.63964 0.0
C278 C 0.76017 0.33194 0.62656 0.0
C279 C 0.74653 0.33393 0.60462 0.0
C280 C 0.75216 0.35465 0.59577 0.0
C281 C 0.77142 0.37338 0.60888 0.0
C282 C 0.78506 0.37138 0.63081 0.0
H283 H 0.87176 0.37465 0.75463 0.0
H284 H 0.82778 0.30600 0.74811 0.0
H285 H 0.85174 0.30245 0.78578 0.0
H286 H 0.89572 0.37110 0.79230 0.0
H287 H 0.75601 0.31660 0.63310 0.0
H288 H 0.73227 0.32007 0.59492 0.0
H289 H 0.77557 0.38871 0.60234 0.0
H290 H 0.79932 0.38525 0.64051 0.0
C291 C 0.53931 0.21009 0.28626 0.0
C292 C 0.56015 0.22944 0.27829 0.0
C293 C 0.56629 0.23453 0.24692 0.0
C294 C 0.55162 0.22026 0.22354 0.0
C295 C 0.53079 0.20090 0.23151 0.0
C296 C 0.52464 0.19582 0.26287 0.0
C297 C 0.57486 0.24368 0.30168 0.0
C298 C 0.58959 0.25792 0.32507 0.0
C299 C 0.60435 0.27215 0.34843 0.0
C300 C 0.61913 0.28637 0.37179 0.0
C301 C 0.63393 0.30058 0.39515 0.0
C302 C 0.65494 0.31973 0.38713 0.0
C303 C 0.66978 0.33390 0.41048 0.0
C304 C 0.66361 0.32892 0.44185 0.0
C305 C 0.64258 0.30978 0.44987 0.0
C306 C 0.62774 0.29561 0.42652 0.0
H307 H 0.53475 0.20632 0.30948 0.0
H308 H 0.58171 0.24887 0.24103 0.0
H309 H 0.55617 0.22403 0.20032 0.0
H310 H 0.50921 0.18149 0.26877 0.0
H311 H 0.65951 0.32341 0.36390 0.0
H312 H 0.68534 0.34807 0.40454 0.0
H313 H 0.63801 0.30610 0.47310 0.0
H314 H 0.61218 0.28144 0.43246 0.0
C315 C 0.55859 0.20965 0.73488 0.0
C316 C 0.56072 0.22948 0.72977 0.0
C317 C 0.54800 0.23505 0.74785 0.0
C318 C 0.53314 0.22079 0.77101 0.0
C319 C 0.53100 0.20095 0.77610 0.0
C320 C 0.54374 0.19538 0.75804 0.0
C321 C 0.57553 0.24371 0.70655 0.0
C322 C 0.59031 0.25795 0.68331 0.0
C323 C 0.60506 0.27217 0.66004 0.0
C324 C 0.61978 0.28639 0.63673 0.0
C325 C 0.63448 0.30060 0.61341 0.0
C326 C 0.63626 0.32024 0.60799 0.0
C327 C 0.65089 0.33441 0.58459 0.0
C328 C 0.66375 0.32895 0.56662 0.0
C329 C 0.66199 0.30931 0.57206 0.0
C330 C 0.64735 0.29514 0.59546 0.0
H331 H 0.56802 0.20552 0.72152 0.0
H332 H 0.54958 0.24974 0.74407 0.0
H333 H 0.52372 0.22492 0.78438 0.0
H334 H 0.54216 0.18070 0.76183 0.0
H335 H 0.62674 0.32428 0.62128 0.0
H336 H 0.65220 0.34894 0.58056 0.0
H337 H 0.67151 0.30528 0.55877 0.0
H338 H 0.64605 0.28060 0.59949 0.0
C339 C 0.68081 0.50264 0.23820 0.0
C340 C 0.69675 0.51224 0.26268 0.0
C341 C 0.71041 0.53499 0.26596 0.0
C342 C 0.70815 0.54814 0.24473 0.0
C343 C 0.69222 0.53855 0.22024 0.0
C344 C 0.67854 0.51580 0.21697 0.0
C345 C 0.69907 0.49909 0.28385 0.0
C346 C 0.70141 0.48595 0.30501 0.0
C347 C 0.70379 0.47283 0.32615 0.0
C348 C 0.70620 0.45971 0.34727 0.0
C349 C 0.70864 0.44661 0.36837 0.0
C350 C 0.72488 0.45627 0.39250 0.0
C351 C 0.72739 0.44317 0.41353 0.0
C352 C 0.71364 0.42041 0.41044 0.0
C353 C 0.69738 0.41075 0.38632 0.0
C354 C 0.69488 0.42385 0.36529 0.0
H355 H 0.67068 0.48580 0.23578 0.0
H356 H 0.72221 0.54210 0.28409 0.0
H357 H 0.71826 0.56499 0.24716 0.0
H358 H 0.66674 0.50869 0.19885 0.0
H359 H 0.73507 0.47312 0.39478 0.0
H360 H 0.73942 0.45032 0.43138 0.0
H361 H 0.68720 0.39390 0.38404 0.0
H362 H 0.68285 0.41670 0.34743 0.0
C363 C 0.71054 0.53519 0.74262 0.0
C364 C 0.69690 0.51244 0.74576 0.0
C365 C 0.68095 0.50280 0.77012 0.0
C366 C 0.67865 0.51593 0.79135 0.0
C367 C 0.69229 0.53868 0.78822 0.0
C368 C 0.70824 0.54831 0.76385 0.0
C369 C 0.69925 0.49932 0.72458 0.0
C370 C 0.70160 0.48619 0.70344 0.0
C371 C 0.70397 0.47305 0.68233 0.0
C372 C 0.70636 0.45991 0.66126 0.0
C373 C 0.70877 0.44676 0.64022 0.0
C374 C 0.69540 0.42404 0.64375 0.0
C375 C 0.69787 0.41089 0.62278 0.0
C376 C 0.71369 0.42047 0.59828 0.0
C377 C 0.72704 0.44320 0.59474 0.0
C378 C 0.72458 0.45634 0.61571 0.0
H379 H 0.72233 0.54232 0.72458 0.0
H380 H 0.67085 0.48596 0.77243 0.0
H381 H 0.66684 0.50879 0.80938 0.0
H382 H 0.71833 0.56515 0.76152 0.0
H383 H 0.68369 0.41694 0.66189 0.0
H384 H 0.68798 0.39407 0.62540 0.0
H385 H 0.73875 0.45028 0.57659 0.0
H386 H 0.73447 0.47317 0.61309 0.0
C387 C 0.84223 0.31978 0.25219 0.0
C388 C 0.84787 0.34050 0.26112 0.0
C389 C 0.86731 0.35923 0.24847 0.0
C390 C 0.88111 0.35725 0.22692 0.0
C391 C 0.87547 0.33653 0.21800 0.0
C392 C 0.85603 0.31780 0.23064 0.0
C393 C 0.83411 0.34248 0.28275 0.0
C394 C 0.82037 0.34448 0.30440 0.0
C395 C 0.80666 0.34649 0.32609 0.0
C396 C 0.79298 0.34851 0.34782 0.0
C397 C 0.77931 0.35054 0.36958 0.0
C398 C 0.78523 0.37128 0.37888 0.0
C399 C 0.77163 0.37331 0.40072 0.0
C400 C 0.75209 0.35461 0.41325 0.0
C401 C 0.74616 0.33387 0.40393 0.0
C402 C 0.75978 0.33183 0.38209 0.0
H403 H 0.82783 0.30591 0.26154 0.0
H404 H 0.87148 0.37456 0.25507 0.0
H405 H 0.89550 0.37112 0.21755 0.0
H406 H 0.85185 0.30246 0.22402 0.0
H407 H 0.79970 0.38513 0.36961 0.0
H408 H 0.77601 0.38866 0.40762 0.0
H409 H 0.73170 0.32002 0.41319 0.0
H410 H 0.75539 0.31648 0.37519 0.0
C411 C 0.00329 0.11684 0.00406 0.0
C412 C 0.99698 0.12175 0.97587 0.0
C413 C 0.99648 0.14051 0.97598 0.0
C414 C 0.00237 0.15191 0.00425 0.0
C415 C 0.02373 0.15518 0.01125 0.0
C416 C 0.02422 0.13641 0.01115 0.0
C417 C 0.98803 0.11682 0.02529 0.0
C418 C 0.98755 0.13559 0.02539 0.0
C419 C 0.00376 0.09806 0.00395 0.0
C420 C 0.00421 0.07928 0.00383 0.0
C421 C 0.00187 0.17067 0.00435 0.0
C422 C 0.00135 0.18941 0.00445 0.0
H423 H 0.99305 0.11173 0.95665 0.0
H424 H 0.99195 0.14514 0.95593 0.0
H425 H 0.03789 0.17075 0.01607 0.0
H426 H 0.03945 0.13759 0.01612 0.0
H427 H 0.97802 0.10345 0.03963 0.0
H428 H 0.97666 0.13672 0.04050 0.0
C429 C 0.14270 0.04545 0.00368 0.0
C430 C 0.14031 0.02585 0.99568 0.0
C431 C 0.16070 0.02635 0.99567 0.0
C432 C 0.18081 0.04638 0.00368 0.0
C433 C 0.17487 0.05124 0.03217 0.0
C434 C 0.15448 0.05074 0.03217 0.0
C435 C 0.15989 0.06041 0.98319 0.0
C436 C 0.18029 0.06091 0.98320 0.0
C437 C 0.12230 0.04495 0.00365 0.0
C438 C 0.10189 0.04444 0.00360 0.0
C439 C 0.20121 0.04687 0.00366 0.0
C440 C 0.22160 0.04737 0.00361 0.0
H441 H 0.12416 0.01217 0.99026 0.0
H442 H 0.16025 0.01243 0.98996 0.0
H443 H 0.18535 0.05489 0.05152 0.0
H444 H 0.14900 0.05417 0.05244 0.0
H445 H 0.15705 0.07022 0.96928 0.0
H446 H 0.19377 0.07159 0.96862 0.0
C447 C 0.91490 0.90449 0.00368 0.0
C448 C 0.91331 0.88903 0.98290 0.0
C449 C 0.89229 0.86862 0.98293 0.0
C450 C 0.87561 0.86634 0.00371 0.0
C451 C 0.87436 0.88416 0.99610 0.0
C452 C 0.89538 0.90457 0.99608 0.0
C453 C 0.90861 0.89325 0.03207 0.0
C454 C 0.88759 0.87284 0.03208 0.0
C455 C 0.93593 0.92489 0.00366 0.0
C456 C 0.95698 0.94529 0.00365 0.0
C457 C 0.85459 0.84592 0.00373 0.0
C458 C 0.83358 0.82549 0.00377 0.0
H459 H 0.92719 0.89307 0.96877 0.0
H460 H 0.88988 0.85637 0.96815 0.0
H461 H 0.85854 0.88173 0.99094 0.0
H462 H 0.89577 0.91850 0.99066 0.0
H463 H 0.91931 0.90015 0.05134 0.0
H464 H 0.88183 0.86360 0.05229 0.0
