data_{}
_symmetry_space_group_name_H-M    P1
_symmetry_Int_Tables_number       1
_symmetry_cell_setting            triclinic
loop_
_symmetry_equiv_pos_as_xyz
'x, y, z'
_cell_length_a     50.862
_cell_length_b     48.656
_cell_length_c     71.561
_cell_angle_alpha  89.284
_cell_angle_beta   91.283
_cell_angle_gamma  89.535
loop_
_atom_site_label
_atom_site_type_symbol
_atom_site_fract_x
_atom_site_fract_y
_atom_site_fract_z
_atom_type_partial_charge
C0 C 0.99688 0.03481 0.02790 0.0
C1 C 0.02279 0.03104 0.01746 0.0
C2 C 0.04880 0.02647 0.02855 0.0
C3 C 0.04889 0.02568 0.05007 0.0
C4 C 0.02298 0.02945 0.06051 0.0
C5 C 0.99698 0.03401 0.04942 0.0
C6 C 0.02392 0.03228 0.99597 0.0
C7 C 0.02474 0.05967 0.98498 0.0
C8 C 0.02444 0.05968 0.96346 0.0
C9 C 0.02333 0.03230 0.95292 0.0
C10 C 0.02251 0.00491 0.96390 0.0
C11 C 0.02281 0.00490 0.98542 0.0
H12 H 0.97763 0.03819 0.01970 0.0
H13 H 0.06797 0.02369 0.02082 0.0
H14 H 0.02556 0.07994 0.99278 0.0
H15 H 0.02221 0.98462 0.99355 0.0
H16 H 0.02305 0.02886 0.07644 0.0
H17 H 0.02468 0.03366 0.93701 0.0
Si18 Si 0.53046 0.53240 0.51292 0.0
C19 C 0.59049 0.55155 0.55075 0.0
C20 C 0.50823 0.58959 0.47185 0.0
C21 C 0.50980 0.56662 0.48366 0.0
C22 C 0.53069 0.56317 0.49698 0.0
C23 C 0.55040 0.58292 0.49722 0.0
C24 C 0.54923 0.60550 0.48503 0.0
C25 C 0.52817 0.60889 0.47268 0.0
C26 C 0.50632 0.46118 0.48558 0.0
C27 C 0.50800 0.48255 0.49824 0.0
C28 C 0.52740 0.50213 0.49707 0.0
C29 C 0.54565 0.50010 0.48271 0.0
C30 C 0.54449 0.47902 0.47003 0.0
C31 C 0.52506 0.45954 0.47134 0.0
H32 H 0.62714 0.53562 0.55191 0.0
C33 C 0.46004 0.55730 0.53578 0.0
C34 C 0.45537 0.53716 0.54905 0.0
C35 C 0.47303 0.51581 0.55196 0.0
C36 C 0.49557 0.51468 0.54165 0.0
C37 C 0.50102 0.53458 0.52814 0.0
H38 H 0.52730 0.62428 0.46483 0.0
C39 C 0.48268 0.55557 0.52545 0.0
H40 H 0.49688 0.55327 0.48280 0.0
H41 H 0.52429 0.44529 0.46284 0.0
H42 H 0.44021 0.53804 0.55605 0.0
C43 C 0.61082 0.53432 0.54585 0.0
H44 H 0.56453 0.58098 0.50562 0.0
H45 H 0.49580 0.48369 0.50769 0.0
H46 H 0.55877 0.51324 0.48173 0.0
C47 C 0.60703 0.51486 0.53180 0.0
C48 C 0.58284 0.51383 0.52235 0.0
C49 C 0.56169 0.53128 0.52699 0.0
C50 C 0.56639 0.54957 0.54131 0.0
H51 H 0.50745 0.50027 0.54376 0.0
H52 H 0.48574 0.56898 0.51639 0.0
H53 H 0.58057 0.50134 0.51273 0.0
H54 H 0.55276 0.56114 0.54481 0.0
C55 C 0.88022 0.40993 0.67234 0.0
C56 C 0.89311 0.38160 0.66940 0.0
C57 C 0.92123 0.37595 0.67697 0.0
C58 C 0.93444 0.34774 0.67409 0.0
C59 C 0.96262 0.34232 0.68167 0.0
C60 C 0.97752 0.36512 0.69206 0.0
C61 C 0.96429 0.39326 0.69499 0.0
C62 C 0.93616 0.39868 0.68742 0.0
C63 C 0.01338 0.33024 0.69822 0.0
C64 C 0.03978 0.32936 0.70900 0.0
C65 C 0.06522 0.33665 0.69894 0.0
C66 C 0.09067 0.34094 0.71051 0.0
C67 C 0.09140 0.33470 0.73167 0.0
C68 C 0.06640 0.32485 0.74137 0.0
C69 C 0.04055 0.32223 0.73002 0.0
C70 C 0.01504 0.31462 0.73997 0.0
C71 C 0.06469 0.34187 0.67763 0.0
C72 C 0.11690 0.33928 0.74317 0.0
C73 C 0.11535 0.35184 0.70104 0.0
C74 C 0.14319 0.39290 0.70002 0.0
C75 C 0.16090 0.37537 0.68763 0.0
C76 C 0.18750 0.38665 0.68133 0.0
C77 C 0.19635 0.41542 0.68743 0.0
C78 C 0.17852 0.43305 0.69971 0.0
C79 C 0.15191 0.42177 0.70601 0.0
C80 C 0.22309 0.42649 0.68125 0.0
C81 C 0.24085 0.40869 0.66904 0.0
C82 C 0.06674 0.31916 0.76257 0.0
C83 C 0.07465 0.28172 0.78531 0.0
C84 C 0.06786 0.30287 0.80030 0.0
C85 C 0.06215 0.29312 0.82033 0.0
C86 C 0.06319 0.26224 0.82529 0.0
C87 C 0.07006 0.24112 0.81029 0.0
C88 C 0.07580 0.25087 0.79028 0.0
C89 C 0.05725 0.25235 0.84524 0.0
C90 C 0.05812 0.22141 0.84999 0.0
O91 O 0.00496 0.35991 0.69971 0.0
O92 O 0.07896 0.29108 0.76549 0.0
O93 O 0.11756 0.38150 0.70669 0.0
H94 H 0.89152 0.42658 0.68011 0.0
H95 H 0.88188 0.36489 0.66165 0.0
H96 H 0.92338 0.33091 0.66635 0.0
H97 H 0.97243 0.32146 0.67958 0.0
H98 H 0.97535 0.41006 0.70276 0.0
H99 H 0.92636 0.41952 0.68955 0.0
H100 H 0.01591 0.32436 0.68299 0.0
H101 H 0.99865 0.31618 0.70527 0.0
H102 H 0.01856 0.31542 0.75574 0.0
H103 H 0.00882 0.29300 0.73590 0.0
H104 H 0.99887 0.32992 0.73564 0.0
H105 H 0.04371 0.34684 0.67265 0.0
H106 H 0.07188 0.32259 0.67034 0.0
H107 H 0.07809 0.35975 0.67405 0.0
H108 H 0.11320 0.33499 0.75859 0.0
H109 H 0.12336 0.36149 0.74124 0.0
H110 H 0.13299 0.32489 0.73813 0.0
H111 H 0.13338 0.33973 0.70631 0.0
H112 H 0.11325 0.35029 0.68520 0.0
H113 H 0.15436 0.35402 0.68319 0.0
H114 H 0.20068 0.37368 0.67218 0.0
H115 H 0.18503 0.45439 0.70417 0.0
H116 H 0.13871 0.43472 0.71517 0.0
H117 H 0.22974 0.44780 0.68571 0.0
H118 H 0.23414 0.38741 0.66460 0.0
H119 H 0.07867 0.33526 0.77040 0.0
H120 H 0.04567 0.31907 0.76771 0.0
H121 H 0.06689 0.32569 0.79653 0.0
H122 H 0.05706 0.30873 0.83147 0.0
H123 H 0.07080 0.21827 0.81400 0.0
H124 H 0.08072 0.23526 0.77912 0.0
H125 H 0.05219 0.26786 0.85644 0.0
H126 H 0.06319 0.20597 0.83874 0.0
C127 C 0.67200 0.88058 0.34795 0.0
C128 C 0.69557 0.89749 0.35508 0.0
C129 C 0.70484 0.92243 0.34361 0.0
C130 C 0.72844 0.93949 0.35052 0.0
C131 C 0.73761 0.96437 0.33892 0.0
C132 C 0.72319 0.97208 0.32043 0.0
C133 C 0.69956 0.95508 0.31357 0.0
C134 C 0.69041 0.93023 0.32515 0.0
C135 C 0.75240 0.01333 0.31914 0.0
C136 C 0.75523 0.03851 0.30626 0.0
C137 C 0.77416 0.03745 0.28984 0.0
C138 C 0.77311 0.06052 0.27495 0.0
C139 C 0.75560 0.08607 0.27768 0.0
C140 C 0.73853 0.08820 0.29510 0.0
C141 C 0.73832 0.06435 0.30939 0.0
C142 C 0.71962 0.06542 0.32600 0.0
C143 C 0.79243 0.01233 0.28751 0.0
C144 C 0.75450 0.10897 0.26262 0.0
C145 C 0.78926 0.05799 0.25718 0.0
C146 C 0.78339 0.05164 0.22331 0.0
C147 C 0.81330 0.05595 0.22276 0.0
C148 C 0.82707 0.05754 0.20384 0.0
C149 C 0.81090 0.05482 0.18552 0.0
C150 C 0.78100 0.05027 0.18609 0.0
C151 C 0.76723 0.04869 0.20501 0.0
C152 C 0.82472 0.05670 0.16664 0.0
C153 C 0.85460 0.06136 0.16619 0.0
C154 C 0.72051 0.11332 0.29776 0.0
C155 C 0.72070 0.15897 0.31190 0.0
C156 C 0.69179 0.16122 0.30520 0.0
C157 C 0.67397 0.18397 0.31286 0.0
C158 C 0.68511 0.20434 0.32725 0.0
C159 C 0.71405 0.20210 0.33390 0.0
C160 C 0.73186 0.17939 0.32622 0.0
C161 C 0.66734 0.22695 0.33510 0.0
C162 C 0.67862 0.24705 0.34959 0.0
O163 O 0.73182 0.99654 0.30910 0.0
O164 O 0.73780 0.13592 0.30513 0.0
O165 O 0.76981 0.05099 0.24179 0.0
H166 H 0.66151 0.88660 0.33424 0.0
H167 H 0.70612 0.89154 0.36878 0.0
H168 H 0.73911 0.93372 0.36420 0.0
H169 H 0.75504 0.97707 0.34401 0.0
H170 H 0.68886 0.96090 0.29991 0.0
H171 H 0.67295 0.91760 0.32007 0.0
H172 H 0.77174 0.00142 0.32064 0.0
H173 H 0.74518 0.01990 0.33339 0.0
H174 H 0.70530 0.08338 0.32390 0.0
H175 H 0.73147 0.06822 0.33955 0.0
H176 H 0.70821 0.04538 0.32678 0.0
H177 H 0.78447 0.99407 0.29570 0.0
H178 H 0.81294 0.01748 0.29314 0.0
H179 H 0.79362 0.00692 0.27210 0.0
H180 H 0.73952 0.12530 0.26662 0.0
H181 H 0.74844 0.09969 0.24864 0.0
H182 H 0.77473 0.11868 0.26141 0.0
H183 H 0.79905 0.07844 0.25392 0.0
H184 H 0.80473 0.04101 0.25893 0.0
H185 H 0.82522 0.05808 0.23634 0.0
H186 H 0.84921 0.06080 0.20339 0.0
H187 H 0.76905 0.04816 0.17252 0.0
H188 H 0.74507 0.04544 0.20547 0.0
H189 H 0.81285 0.05467 0.15303 0.0
H190 H 0.86641 0.06337 0.17983 0.0
H191 H 0.71055 0.11999 0.28400 0.0
H192 H 0.70501 0.10803 0.30848 0.0
H193 H 0.68356 0.14596 0.29468 0.0
H194 H 0.65254 0.18567 0.30796 0.0
H195 H 0.72223 0.21720 0.34455 0.0
H196 H 0.75324 0.17757 0.33121 0.0
H197 H 0.64589 0.22878 0.33023 0.0
H198 H 0.70008 0.24513 0.35443 0.0
C199 C 0.82868 0.68012 0.66747 0.0
C200 C 0.84215 0.66547 0.68437 0.0
C201 C 0.87017 0.67364 0.69053 0.0
C202 C 0.88394 0.65912 0.70737 0.0
C203 C 0.91202 0.66741 0.71338 0.0
C204 C 0.92625 0.69015 0.70253 0.0
C205 C 0.91246 0.70471 0.68575 0.0
C206 C 0.88443 0.69643 0.67974 0.0
C207 C 0.96256 0.68546 0.72670 0.0
C208 C 0.98870 0.69983 0.73096 0.0
C209 C 0.01428 0.68869 0.72275 0.0
C210 C 0.03934 0.70609 0.72401 0.0
C211 C 0.03964 0.73277 0.73538 0.0
C212 C 0.01457 0.74246 0.74509 0.0
C213 C 0.98905 0.72599 0.74284 0.0
C214 C 0.96342 0.73685 0.75122 0.0
C215 C 0.01420 0.66144 0.71198 0.0
C216 C 0.06476 0.75018 0.73644 0.0
C217 C 0.06408 0.69712 0.71372 0.0
C218 C 0.09122 0.71100 0.68725 0.0
C219 C 0.10955 0.68741 0.69398 0.0
C220 C 0.13612 0.68291 0.68456 0.0
C221 C 0.14430 0.70201 0.66842 0.0
C222 C 0.12584 0.72547 0.66160 0.0
C223 C 0.09928 0.72997 0.67103 0.0
C224 C 0.17100 0.69760 0.65917 0.0
C225 C 0.18940 0.67417 0.66613 0.0
C226 C 0.01445 0.76939 0.75612 0.0
C227 C 0.02244 0.78655 0.78780 0.0
C228 C 0.01488 0.81503 0.77965 0.0
C229 C 0.00883 0.83887 0.79286 0.0
C230 C 0.01028 0.83412 0.81418 0.0
C231 C 0.01791 0.80564 0.82230 0.0
C232 C 0.02400 0.78183 0.80909 0.0
C233 C 0.00401 0.85779 0.82745 0.0
C234 C 0.00530 0.85274 0.84873 0.0
O235 O 0.95359 0.69860 0.70843 0.0
O236 O 0.02709 0.76288 0.77491 0.0
O237 O 0.06562 0.71594 0.69689 0.0
H238 H 0.83949 0.69695 0.65960 0.0
H239 H 0.83141 0.64862 0.69228 0.0
H240 H 0.87338 0.64226 0.71536 0.0
H241 H 0.92225 0.65673 0.72585 0.0
H242 H 0.92302 0.72162 0.67778 0.0
H243 H 0.87421 0.70716 0.66729 0.0
H244 H 0.96559 0.66237 0.72509 0.0
H245 H 0.94791 0.68991 0.73813 0.0
H246 H 0.96652 0.75877 0.75622 0.0
H247 H 0.95769 0.72321 0.76352 0.0
H248 H 0.94710 0.73668 0.74004 0.0
H249 H 0.99327 0.65653 0.70714 0.0
H250 H 0.02192 0.64422 0.72163 0.0
H251 H 0.02738 0.66317 0.69935 0.0
H252 H 0.06074 0.76973 0.74456 0.0
H253 H 0.07088 0.75581 0.72165 0.0
H254 H 0.08123 0.73785 0.74375 0.0
H255 H 0.08218 0.69977 0.72319 0.0
H256 H 0.06241 0.67483 0.70916 0.0
H257 H 0.10350 0.67336 0.70599 0.0
H258 H 0.14976 0.66549 0.68954 0.0
H259 H 0.13187 0.73955 0.64961 0.0
H260 H 0.08561 0.74740 0.66605 0.0
H261 H 0.17716 0.71166 0.64720 0.0
H262 H 0.18318 0.66014 0.67809 0.0
H263 H 0.02590 0.78611 0.74862 0.0
H264 H 0.99326 0.77646 0.75803 0.0
H265 H 0.01361 0.81839 0.76387 0.0
H266 H 0.00318 0.85997 0.78688 0.0
H267 H 0.01896 0.80219 0.83808 0.0
H268 H 0.02948 0.76069 0.81507 0.0
H269 H 0.99838 0.87896 0.82155 0.0
H270 H 0.01092 0.83153 0.85456 0.0
C271 C 0.37580 0.81609 0.34322 0.0
C272 C 0.34884 0.82967 0.34642 0.0
C273 C 0.34330 0.85903 0.33899 0.0
C274 C 0.31646 0.87294 0.34213 0.0
C275 C 0.31114 0.90236 0.33469 0.0
C276 C 0.33268 0.91779 0.32417 0.0
C277 C 0.35946 0.90385 0.32098 0.0
C278 C 0.36477 0.87449 0.32841 0.0
C279 C 0.29926 0.95533 0.31840 0.0
C280 C 0.29818 0.98285 0.30771 0.0
C281 C 0.30554 0.00949 0.31781 0.0
C282 C 0.30939 0.03599 0.30628 0.0
C283 C 0.30279 0.03662 0.28517 0.0
C284 C 0.29299 0.01045 0.27545 0.0
C285 C 0.29074 0.98352 0.28674 0.0
C286 C 0.28307 0.95680 0.27676 0.0
C287 C 0.31118 0.00908 0.33907 0.0
C288 C 0.30690 0.06317 0.27371 0.0
C289 C 0.32017 0.06183 0.31575 0.0
C290 C 0.35957 0.09080 0.31654 0.0
C291 C 0.34324 0.10946 0.32913 0.0
C292 C 0.35430 0.13728 0.33544 0.0
C293 C 0.38167 0.14639 0.32914 0.0
C294 C 0.39809 0.12761 0.31666 0.0
C295 C 0.38702 0.09979 0.31036 0.0
C296 C 0.39253 0.17435 0.33533 0.0
C297 C 0.37593 0.19306 0.34773 0.0
C298 C 0.28691 0.01066 0.25430 0.0
C299 C 0.25045 0.01888 0.23187 0.0
C300 C 0.27021 0.01160 0.21669 0.0
C301 C 0.26027 0.00552 0.19671 0.0
C302 C 0.23059 0.00666 0.19200 0.0
C303 C 0.21086 0.01401 0.20719 0.0
C304 C 0.22080 0.02013 0.22715 0.0
C305 C 0.22051 0.00010 0.17210 0.0
C306 C 0.19078 0.00131 0.16759 0.0
O307 O 0.32757 0.94643 0.31665 0.0
O308 O 0.26002 0.02350 0.25163 0.0
O309 O 0.34838 0.06400 0.30988 0.0
H310 H 0.39153 0.82780 0.33536 0.0
H311 H 0.33306 0.81804 0.35427 0.0
H312 H 0.30055 0.86149 0.34996 0.0
H313 H 0.29129 0.91269 0.33697 0.0
H314 H 0.37533 0.91530 0.31311 0.0
H315 H 0.38461 0.86417 0.32609 0.0
H316 H 0.29410 0.95810 0.33368 0.0
H317 H 0.28555 0.93993 0.31140 0.0
H318 H 0.28339 0.96036 0.26100 0.0
H319 H 0.26250 0.95040 0.28099 0.0
H320 H 0.29779 0.93989 0.28092 0.0
H321 H 0.31601 0.98717 0.34394 0.0
H322 H 0.29298 0.01671 0.34654 0.0
H323 H 0.32843 0.02305 0.34256 0.0
H324 H 0.30234 0.05921 0.25832 0.0
H325 H 0.32823 0.06987 0.27550 0.0
H326 H 0.29335 0.08007 0.27892 0.0
H327 H 0.30850 0.08067 0.31063 0.0
H328 H 0.31916 0.05975 0.33160 0.0
H329 H 0.32293 0.10272 0.33372 0.0
H330 H 0.34221 0.15116 0.34473 0.0
H331 H 0.41840 0.13432 0.31206 0.0
H332 H 0.39910 0.08588 0.30105 0.0
H333 H 0.41279 0.18120 0.33072 0.0
H334 H 0.35568 0.18615 0.35232 0.0
H335 H 0.30212 0.02303 0.24639 0.0
H336 H 0.28660 0.98860 0.24909 0.0
H337 H 0.29214 0.01054 0.22028 0.0
H338 H 0.27484 0.00010 0.18544 0.0
H339 H 0.18890 0.01483 0.20365 0.0
H340 H 0.20623 0.02540 0.23845 0.0
H341 H 0.23499 0.99492 0.16076 0.0
H342 H 0.17637 0.00673 0.17898 0.0
C343 C 0.63370 0.49740 0.54145 0.0
C344 C 0.65703 0.48883 0.55438 0.0
C345 C 0.68037 0.48026 0.56731 0.0
C346 C 0.67537 0.46576 0.58613 0.0
C347 C 0.69872 0.45719 0.59905 0.0
C348 C 0.72706 0.46312 0.59314 0.0
C349 C 0.73206 0.47763 0.57432 0.0
C350 C 0.70872 0.48620 0.56141 0.0
C351 C 0.75040 0.45453 0.60606 0.0
C352 C 0.77875 0.46044 0.60015 0.0
C353 C 0.80209 0.45185 0.61308 0.0
C354 C 0.79707 0.43737 0.63191 0.0
C355 C 0.76872 0.43146 0.63782 0.0
C356 C 0.74539 0.44005 0.62489 0.0
C357 C 0.82040 0.42878 0.64483 0.0
C358 C 0.84371 0.42018 0.65778 0.0
H359 H 0.65439 0.46137 0.59051 0.0
H360 H 0.69502 0.44645 0.61298 0.0
H361 H 0.75304 0.48201 0.56995 0.0
H362 H 0.71241 0.49694 0.54748 0.0
H363 H 0.78247 0.47117 0.58622 0.0
H364 H 0.82308 0.45621 0.60871 0.0
H365 H 0.76501 0.42073 0.65175 0.0
H366 H 0.72440 0.43568 0.62926 0.0
C367 C 0.55942 0.47347 0.46345 0.0
C368 C 0.57112 0.45039 0.45158 0.0
C369 C 0.58282 0.42731 0.43972 0.0
C370 C 0.57082 0.42116 0.42028 0.0
C371 C 0.58253 0.39808 0.40843 0.0
C372 C 0.60624 0.38115 0.41601 0.0
C373 C 0.61825 0.38729 0.43544 0.0
C374 C 0.60653 0.41037 0.44730 0.0
C375 C 0.61796 0.35808 0.40414 0.0
C376 C 0.64169 0.34116 0.41171 0.0
C377 C 0.65340 0.31809 0.39983 0.0
C378 C 0.64137 0.31194 0.38041 0.0
C379 C 0.61764 0.32887 0.37284 0.0
C380 C 0.60594 0.35193 0.38471 0.0
C381 C 0.65307 0.28887 0.36853 0.0
C382 C 0.66475 0.26581 0.35664 0.0
H383 H 0.55326 0.43369 0.41468 0.0
H384 H 0.57365 0.39353 0.39404 0.0
H385 H 0.63580 0.37476 0.44105 0.0
H386 H 0.61540 0.41491 0.46169 0.0
H387 H 0.65059 0.34569 0.42609 0.0
H388 H 0.67097 0.30556 0.40543 0.0
H389 H 0.60875 0.32432 0.35845 0.0
H390 H 0.58837 0.36447 0.37912 0.0
C391 C 0.43431 0.57715 0.54141 0.0
C392 C 0.41132 0.58671 0.55345 0.0
C393 C 0.38832 0.59627 0.56548 0.0
C394 C 0.35989 0.59501 0.55769 0.0
C395 C 0.33691 0.60456 0.56973 0.0
C396 C 0.34236 0.61539 0.58956 0.0
C397 C 0.37079 0.61666 0.59735 0.0
C398 C 0.39377 0.60711 0.58531 0.0
C399 C 0.31937 0.62493 0.60160 0.0
C400 C 0.32481 0.63574 0.62144 0.0
C401 C 0.30181 0.64528 0.63347 0.0
C402 C 0.27338 0.64403 0.62567 0.0
C403 C 0.26795 0.63322 0.60583 0.0
C404 C 0.29094 0.62368 0.59380 0.0
C405 C 0.25038 0.65357 0.63770 0.0
C406 C 0.22736 0.66311 0.64971 0.0
H407 H 0.35586 0.58699 0.54301 0.0
H408 H 0.31587 0.60362 0.56397 0.0
H409 H 0.37483 0.62467 0.61203 0.0
H410 H 0.41482 0.60805 0.59107 0.0
H411 H 0.34585 0.63668 0.62721 0.0
H412 H 0.30582 0.65327 0.64816 0.0
H413 H 0.24690 0.63228 0.60006 0.0
H414 H 0.28693 0.61568 0.57911 0.0
C415 C 0.56971 0.63208 0.47729 0.0
C416 C 0.57952 0.65575 0.46485 0.0
C417 C 0.58934 0.67941 0.45240 0.0
C418 C 0.56951 0.69970 0.44311 0.0
C419 C 0.57934 0.72336 0.43067 0.0
C420 C 0.60900 0.72673 0.42752 0.0
C421 C 0.62883 0.70644 0.43682 0.0
C422 C 0.61900 0.68278 0.44925 0.0
C423 C 0.61882 0.75041 0.41509 0.0
C424 C 0.64848 0.75380 0.41195 0.0
C425 C 0.65829 0.77748 0.39952 0.0
C426 C 0.63844 0.79775 0.39022 0.0
C427 C 0.60879 0.79436 0.39336 0.0
C428 C 0.59898 0.77068 0.40579 0.0
C429 C 0.64825 0.82143 0.37778 0.0
C430 C 0.65802 0.84512 0.36533 0.0
H431 H 0.54755 0.69720 0.44543 0.0
H432 H 0.56467 0.73838 0.42379 0.0
H433 H 0.65078 0.70894 0.43449 0.0
H434 H 0.63367 0.66775 0.45613 0.0
H435 H 0.66317 0.73879 0.41883 0.0
H436 H 0.68024 0.78001 0.39720 0.0
H437 H 0.59410 0.80937 0.38647 0.0
H438 H 0.57702 0.76816 0.40811 0.0
C439 C 0.48577 0.43592 0.47561 0.0
C440 C 0.47526 0.41298 0.46291 0.0
C441 C 0.46474 0.39003 0.45022 0.0
C442 C 0.43749 0.39307 0.44057 0.0
C443 C 0.42699 0.37011 0.42787 0.0
C444 C 0.44374 0.34412 0.42482 0.0
C445 C 0.47100 0.34107 0.43447 0.0
C446 C 0.48149 0.36403 0.44717 0.0
C447 C 0.43324 0.32118 0.41211 0.0
C448 C 0.44999 0.29519 0.40905 0.0
C449 C 0.43948 0.27226 0.39634 0.0
C450 C 0.41222 0.27530 0.38671 0.0
C451 C 0.39546 0.30129 0.38977 0.0
C452 C 0.40597 0.32423 0.40248 0.0
C453 C 0.40170 0.25237 0.37400 0.0
C454 C 0.39114 0.22945 0.36129 0.0
H455 H 0.42508 0.41231 0.44282 0.0
H456 H 0.40682 0.37237 0.42072 0.0
H457 H 0.48340 0.32183 0.43222 0.0
H458 H 0.50166 0.36177 0.45432 0.0
H459 H 0.47017 0.29292 0.41619 0.0
H460 H 0.45188 0.25302 0.39406 0.0
H461 H 0.37528 0.30356 0.38263 0.0
H462 H 0.39357 0.34347 0.40475 0.0
C463 C 0.46556 0.50702 0.55816 0.0
C464 C 0.44260 0.49692 0.57004 0.0
C465 C 0.41965 0.48682 0.58193 0.0
C466 C 0.39185 0.48461 0.57312 0.0
C467 C 0.36892 0.47450 0.58502 0.0
C468 C 0.37376 0.46661 0.60573 0.0
C469 C 0.40156 0.46883 0.61454 0.0
C470 C 0.42449 0.47894 0.60264 0.0
C471 C 0.35082 0.45649 0.61761 0.0
C472 C 0.35566 0.44859 0.63831 0.0
C473 C 0.33271 0.43846 0.65020 0.0
C474 C 0.30491 0.43627 0.64138 0.0
C475 C 0.30007 0.44418 0.62068 0.0
C476 C 0.32302 0.45430 0.60880 0.0
C477 C 0.28196 0.42616 0.65326 0.0
C478 C 0.25897 0.41606 0.66512 0.0
H479 H 0.38826 0.49045 0.55780 0.0
H480 H 0.34834 0.47285 0.57850 0.0
H481 H 0.40515 0.46299 0.62986 0.0
H482 H 0.44507 0.48060 0.60916 0.0
H483 H 0.37623 0.45022 0.64485 0.0
H484 H 0.33629 0.43260 0.66552 0.0
H485 H 0.27950 0.44254 0.61415 0.0
H486 H 0.31945 0.46016 0.59347 0.0
C487 C 0.49930 0.59296 0.46262 0.0
C488 C 0.48614 0.61525 0.45003 0.0
C489 C 0.47298 0.63754 0.43745 0.0
C490 C 0.44279 0.64008 0.43630 0.0
C491 C 0.42965 0.66238 0.42371 0.0
C492 C 0.44670 0.68214 0.41228 0.0
C493 C 0.47690 0.67960 0.41343 0.0
C494 C 0.49003 0.65730 0.42601 0.0
C495 C 0.43355 0.70445 0.39971 0.0
C496 C 0.45060 0.72422 0.38829 0.0
C497 C 0.43744 0.74652 0.37572 0.0
C498 C 0.40724 0.74904 0.37456 0.0
C499 C 0.39019 0.72926 0.38599 0.0
C500 C 0.40336 0.70696 0.39856 0.0
C501 C 0.39408 0.77134 0.36199 0.0
C502 C 0.38088 0.79361 0.34942 0.0
H503 H 0.43016 0.62545 0.44476 0.0
H504 H 0.40730 0.66426 0.42286 0.0
H505 H 0.48952 0.69422 0.40497 0.0
H506 H 0.51239 0.65540 0.42686 0.0
H507 H 0.47295 0.72236 0.38914 0.0
H508 H 0.45005 0.76118 0.36727 0.0
H509 H 0.36784 0.73113 0.38514 0.0
H510 H 0.39074 0.69231 0.40701 0.0
C511 C 0.59507 0.56500 0.55936 0.0
C512 C 0.61835 0.57691 0.57066 0.0
C513 C 0.64163 0.58882 0.58196 0.0
C514 C 0.67001 0.58034 0.57745 0.0
C515 C 0.69327 0.59226 0.58875 0.0
C516 C 0.68817 0.61267 0.60456 0.0
C517 C 0.65980 0.62116 0.60907 0.0
C518 C 0.63654 0.60923 0.59777 0.0
C519 C 0.71145 0.62460 0.61585 0.0
C520 C 0.70636 0.64503 0.63166 0.0
C521 C 0.72965 0.65695 0.64294 0.0
C522 C 0.75801 0.64844 0.63843 0.0
C523 C 0.76310 0.62801 0.62262 0.0
C524 C 0.73982 0.61609 0.61134 0.0
C525 C 0.78130 0.66036 0.64972 0.0
C526 C 0.80462 0.67225 0.66099 0.0
H527 H 0.67378 0.56522 0.56574 0.0
H528 H 0.71427 0.58598 0.58541 0.0
H529 H 0.65603 0.63627 0.62078 0.0
H530 H 0.61553 0.61550 0.60112 0.0
H531 H 0.68537 0.65132 0.63500 0.0
H532 H 0.72589 0.67209 0.65464 0.0
H533 H 0.78410 0.62172 0.61928 0.0
H534 H 0.74358 0.60096 0.59964 0.0
H535 H 0.95339 0.02400 0.05510 0.0
H536 H 0.85846 0.04530 0.13280 0.0
H537 H 0.90559 0.03466 0.14091 0.0
H538 H 0.89005 0.03821 0.10721 0.0
H539 H 0.93832 0.02731 0.11477 0.0
H540 H 0.92218 0.03100 0.08120 0.0
H541 H 0.96988 0.02023 0.08811 0.0
H542 H 0.96056 0.06005 0.05493 0.0
H543 H 0.86563 0.08135 0.13263 0.0
H544 H 0.91276 0.07071 0.14075 0.0
H545 H 0.89722 0.07426 0.10705 0.0
H546 H 0.94549 0.06336 0.11460 0.0
H547 H 0.92935 0.06705 0.08104 0.0
H548 H 0.97705 0.05628 0.08794 0.0
C549 C 0.96651 0.03987 0.06074 0.0
C550 C 0.87095 0.06131 0.13895 0.0
C551 C 0.89999 0.05476 0.13480 0.0
C552 C 0.90281 0.05416 0.11315 0.0
C553 C 0.93264 0.04744 0.10872 0.0
C554 C 0.93510 0.04691 0.08701 0.0
C555 C 0.96412 0.04037 0.08214 0.0
H556 H 0.02163 0.10849 0.96016 0.0
H557 H 0.04404 0.21806 0.88731 0.0
H558 H 0.07537 0.17821 0.88987 0.0
H559 H 0.03683 0.18169 0.91136 0.0
H560 H 0.06823 0.14063 0.91452 0.0
H561 H 0.02950 0.14469 0.93581 0.0
H562 H 0.06002 0.10394 0.93934 0.0
H563 H 0.00170 0.08990 0.94371 0.0
H564 H 0.02411 0.19947 0.87086 0.0
H565 H 0.05544 0.15962 0.87342 0.0
H566 H 0.01690 0.16310 0.89491 0.0
H567 H 0.04830 0.12204 0.89807 0.0
H568 H 0.00958 0.12610 0.91935 0.0
H569 H 0.04009 0.08536 0.92289 0.0
C570 C 0.02171 0.09241 0.94952 0.0
C571 C 0.04427 0.20271 0.87618 0.0
C572 C 0.05526 0.17530 0.88435 0.0
C573 C 0.03701 0.16601 0.90043 0.0
C574 C 0.04814 0.13781 0.90894 0.0
C575 C 0.02964 0.12883 0.92501 0.0
C576 C 0.03996 0.10122 0.93368 0.0
H577 H 0.08609 0.04413 0.05952 0.0
H578 H 0.18449 0.02269 0.13849 0.0
H579 H 0.13690 0.01412 0.14429 0.0
H580 H 0.15175 0.02972 0.11247 0.0
H581 H 0.10299 0.02124 0.11768 0.0
H582 H 0.11846 0.03685 0.08603 0.0
H583 H 0.07026 0.02871 0.09063 0.0
H584 H 0.09028 0.00896 0.05287 0.0
H585 H 0.18868 0.98752 0.13183 0.0
H586 H 0.14109 0.97894 0.13763 0.0
H587 H 0.15594 0.99455 0.10582 0.0
H588 H 0.10718 0.98607 0.11103 0.0
H589 H 0.12265 0.00168 0.07937 0.0
H590 H 0.07445 0.99354 0.08398 0.0
C591 C 0.07867 0.02313 0.06130 0.0
C592 C 0.17773 0.00155 0.14079 0.0
C593 C 0.14815 0.00010 0.13554 0.0
C594 C 0.14470 0.00863 0.11456 0.0
C595 C 0.11432 0.00714 0.10901 0.0
C596 C 0.11124 0.01581 0.08797 0.0
C597 C 0.08167 0.01458 0.08204 0.0
H598 H 0.01815 0.95780 0.96100 0.0
H599 H 0.00139 0.86037 0.88092 0.0
H600 H 0.97807 0.90585 0.87933 0.0
H601 H 0.00679 0.89278 0.90733 0.0
H602 H 0.98341 0.93940 0.90637 0.0
H603 H 0.01226 0.92573 0.93417 0.0
H604 H 0.98954 0.97184 0.93373 0.0
H605 H 0.04599 0.97277 0.94989 0.0
H606 H 0.02923 0.87534 0.86980 0.0
H607 H 0.00590 0.92081 0.86822 0.0
H608 H 0.03462 0.90774 0.89621 0.0
H609 H 0.01124 0.95437 0.89526 0.0
H610 H 0.04010 0.94070 0.92306 0.0
H611 H 0.01738 0.98681 0.92262 0.0
C612 C 0.02458 0.97423 0.95151 0.0
C613 C 0.00772 0.87615 0.87090 0.0
C614 C 0.99990 0.90474 0.87802 0.0
C615 C 0.01315 0.90884 0.89753 0.0
C616 C 0.00487 0.93822 0.90500 0.0
C617 C 0.01866 0.94196 0.92452 0.0
C618 C 0.01098 0.97057 0.93227 0.0
