data_{}
_symmetry_space_group_name_H-M    P1
_symmetry_Int_Tables_number       1
_symmetry_cell_setting            triclinic
loop_
_symmetry_equiv_pos_as_xyz
'x, y, z'
_cell_length_a     43.454
_cell_length_b     41.505
_cell_length_c     75.097
_cell_angle_alpha  89.360
_cell_angle_beta   91.494
_cell_angle_gamma  88.608
loop_
_atom_site_label
_atom_site_type_symbol
_atom_site_fract_x
_atom_site_fract_y
_atom_site_fract_z
_atom_type_partial_charge
O0 O 0.99791 0.00300 0.01041 0.0
H1 H 0.07283 0.04272 0.04588 0.0
H2 H 0.01894 0.02076 0.08694 0.0
H3 H 0.98195 0.02774 0.03659 0.0
H4 H 0.01023 0.98981 0.98133 0.0
H5 H 0.04052 0.04155 0.93987 0.0
H6 H 0.04163 0.07981 0.98960 0.0
C7 C 0.02774 0.03754 0.03853 0.0
C8 C 0.05308 0.03824 0.05030 0.0
C9 C 0.02134 0.02471 0.07456 0.0
C10 C 0.04983 0.03256 0.06801 0.0
C11 C 0.99990 0.02911 0.04458 0.0
C12 C 0.99636 0.02272 0.06269 0.0
C13 C 0.03198 0.04380 0.01956 0.0
C14 C 0.02372 0.03484 0.98814 0.0
C15 C 0.01811 0.00925 0.97671 0.0
C16 C 0.03652 0.03961 0.95222 0.0
C17 C 0.02383 0.01182 0.95904 0.0
C18 C 0.03698 0.06261 0.98182 0.0
C19 C 0.04327 0.06459 0.96378 0.0
C20 C 0.01729 0.03135 0.00707 0.0
O21 O 0.06231 0.05833 0.01641 0.0
Si22 Si 0.53676 0.53607 0.51902 0.0
C23 C 0.60716 0.55806 0.55501 0.0
C24 C 0.50989 0.60317 0.47985 0.0
C25 C 0.51202 0.57627 0.49113 0.0
C26 C 0.53663 0.57207 0.50381 0.0
C27 C 0.55952 0.59502 0.50400 0.0
C28 C 0.55786 0.62146 0.49237 0.0
C29 C 0.53307 0.62560 0.48061 0.0
C30 C 0.50890 0.45269 0.49304 0.0
C31 C 0.51077 0.47778 0.50509 0.0
C32 C 0.53330 0.50054 0.50394 0.0
C33 C 0.55458 0.49791 0.49024 0.0
C34 C 0.55331 0.47315 0.47818 0.0
C35 C 0.53073 0.45052 0.47946 0.0
H36 H 0.65022 0.53901 0.55610 0.0
C37 C 0.45428 0.56608 0.54083 0.0
C38 C 0.44909 0.54256 0.55351 0.0
C39 C 0.46997 0.51736 0.55629 0.0
C40 C 0.49629 0.51576 0.54645 0.0
C41 C 0.50238 0.53898 0.53354 0.0
H42 H 0.53186 0.64362 0.47312 0.0
C43 C 0.48071 0.56377 0.53098 0.0
H44 H 0.49701 0.56075 0.49033 0.0
H45 H 0.52989 0.43379 0.47137 0.0
H46 H 0.43140 0.54378 0.56019 0.0
C47 C 0.63107 0.53763 0.55034 0.0
H48 H 0.57615 0.59264 0.51200 0.0
H49 H 0.49656 0.47929 0.51410 0.0
H50 H 0.56981 0.51317 0.48929 0.0
C51 C 0.62669 0.51479 0.53697 0.0
C52 C 0.59831 0.51379 0.52799 0.0
C53 C 0.57343 0.53448 0.53241 0.0
C54 C 0.57888 0.55594 0.54604 0.0
H55 H 0.51034 0.49875 0.54846 0.0
H56 H 0.48411 0.57943 0.52233 0.0
H57 H 0.59568 0.49913 0.51883 0.0
H58 H 0.56286 0.56966 0.54937 0.0
C59 C 0.86058 0.41369 0.63433 0.0
C60 C 0.87615 0.38005 0.63327 0.0
C61 C 0.90911 0.37453 0.64089 0.0
C62 C 0.92505 0.34104 0.63989 0.0
C63 C 0.95807 0.33579 0.64752 0.0
C64 C 0.97507 0.36403 0.65608 0.0
C65 C 0.95911 0.39745 0.65713 0.0
C66 C 0.92614 0.40270 0.64952 0.0
C67 C 0.01757 0.32408 0.66414 0.0
C68 C 0.04842 0.32465 0.67452 0.0
C69 C 0.07816 0.33146 0.66466 0.0
C70 C 0.10779 0.33822 0.67548 0.0
C71 C 0.10859 0.33428 0.69591 0.0
C72 C 0.07941 0.32443 0.70559 0.0
C73 C 0.04927 0.31967 0.69487 0.0
C74 C 0.01945 0.31247 0.70464 0.0
C75 C 0.07762 0.33418 0.64416 0.0
C76 C 0.13828 0.34135 0.70665 0.0
C77 C 0.13659 0.34933 0.66597 0.0
C78 C 0.16852 0.39705 0.66269 0.0
C79 C 0.18963 0.37451 0.65206 0.0
C80 C 0.22065 0.38657 0.64554 0.0
C81 C 0.23049 0.42114 0.64966 0.0
C82 C 0.20923 0.44377 0.66017 0.0
C83 C 0.17822 0.43171 0.66670 0.0
C84 C 0.26166 0.43298 0.64325 0.0
C85 C 0.28284 0.41015 0.63282 0.0
C86 C 0.07973 0.32115 0.72601 0.0
C87 C 0.08943 0.28097 0.74981 0.0
C88 C 0.08102 0.30812 0.76274 0.0
C89 C 0.07434 0.29994 0.78228 0.0
C90 C 0.07602 0.26462 0.78881 0.0
C91 C 0.08451 0.23752 0.77587 0.0
C92 C 0.09123 0.24570 0.75635 0.0
C93 C 0.06907 0.25626 0.80827 0.0
C94 C 0.07056 0.22085 0.81461 0.0
O95 O 0.00723 0.35904 0.66375 0.0
O96 O 0.09447 0.28874 0.73050 0.0
O97 O 0.13865 0.38490 0.66957 0.0
H98 H 0.87349 0.43434 0.64074 0.0
H99 H 0.86333 0.35934 0.62686 0.0
H100 H 0.91243 0.32018 0.63351 0.0
H101 H 0.96991 0.31103 0.64682 0.0
H102 H 0.97172 0.41828 0.66356 0.0
H103 H 0.91432 0.42744 0.65026 0.0
H104 H 0.02074 0.31477 0.65007 0.0
H105 H 0.00010 0.30883 0.67159 0.0
H106 H 0.02343 0.31591 0.71955 0.0
H107 H 0.01255 0.28658 0.70203 0.0
H108 H 0.00010 0.32974 0.69956 0.0
H109 H 0.05301 0.33928 0.63906 0.0
H110 H 0.08640 0.31045 0.63842 0.0
H111 H 0.09304 0.35445 0.63976 0.0
H112 H 0.13390 0.33882 0.72150 0.0
H113 H 0.14550 0.36698 0.70353 0.0
H114 H 0.15739 0.32366 0.70279 0.0
H115 H 0.15785 0.33595 0.67176 0.0
H116 H 0.13427 0.34501 0.65104 0.0
H117 H 0.18235 0.34887 0.64909 0.0
H118 H 0.23635 0.36989 0.63769 0.0
H119 H 0.21648 0.46941 0.66316 0.0
H120 H 0.16248 0.44837 0.67455 0.0
H121 H 0.26907 0.45856 0.64625 0.0
H122 H 0.27537 0.38459 0.62984 0.0
H123 H 0.09338 0.34116 0.73253 0.0
H124 H 0.05503 0.32195 0.73080 0.0
H125 H 0.07954 0.33419 0.75781 0.0
H126 H 0.06804 0.31997 0.79188 0.0
H127 H 0.08572 0.21139 0.78075 0.0
H128 H 0.09733 0.22565 0.74672 0.0
H129 H 0.06281 0.27620 0.81795 0.0
H130 H 0.07682 0.20099 0.80489 0.0
C131 C 0.67636 0.84732 0.39739 0.0
C132 C 0.70484 0.86671 0.40279 0.0
C133 C 0.71385 0.89586 0.39137 0.0
C134 C 0.74233 0.91544 0.39657 0.0
C135 C 0.75120 0.94452 0.38502 0.0
C136 C 0.73161 0.95389 0.36831 0.0
C137 C 0.70311 0.93439 0.36316 0.0
C138 C 0.69425 0.90535 0.37469 0.0
C139 C 0.76533 0.00179 0.36541 0.0
C140 C 0.76663 0.03133 0.35303 0.0
C141 C 0.78617 0.02987 0.33628 0.0
C142 C 0.78266 0.05702 0.32222 0.0
C143 C 0.76266 0.08725 0.32590 0.0
C144 C 0.74543 0.08992 0.34350 0.0
C145 C 0.74739 0.06189 0.35706 0.0
C146 C 0.72815 0.06334 0.37398 0.0
C147 C 0.80711 0.00010 0.33293 0.0
C148 C 0.75907 0.11419 0.31168 0.0
C149 C 0.79876 0.05390 0.30435 0.0
C150 C 0.78682 0.04673 0.27247 0.0
C151 C 0.82153 0.05130 0.27017 0.0
C152 C 0.83468 0.05305 0.25136 0.0
C153 C 0.81310 0.05023 0.23489 0.0
C154 C 0.77840 0.04539 0.23721 0.0
C155 C 0.76525 0.04365 0.25602 0.0
C156 C 0.82631 0.05231 0.21611 0.0
C157 C 0.86101 0.05730 0.21391 0.0
C158 C 0.72483 0.11965 0.34714 0.0
C159 C 0.72712 0.17308 0.36066 0.0
C160 C 0.69246 0.17623 0.35601 0.0
C161 C 0.67286 0.20315 0.36440 0.0
C162 C 0.68796 0.22676 0.37745 0.0
C163 C 0.72264 0.22362 0.38205 0.0
C164 C 0.74224 0.19675 0.37364 0.0
C165 C 0.66843 0.25351 0.38601 0.0
C166 C 0.68373 0.27680 0.39916 0.0
O167 O 0.73989 0.98250 0.35706 0.0
O168 O 0.74602 0.14582 0.35315 0.0
O169 O 0.77382 0.04609 0.29085 0.0
H170 H 0.66207 0.85462 0.38498 0.0
H171 H 0.71919 0.85948 0.41519 0.0
H172 H 0.75683 0.90842 0.40893 0.0
H173 H 0.77223 0.95909 0.38885 0.0
H174 H 0.68857 0.94148 0.35082 0.0
H175 H 0.67319 0.89086 0.37087 0.0
H176 H 0.78809 0.98750 0.36566 0.0
H177 H 0.75908 0.00952 0.37941 0.0
H178 H 0.71113 0.08465 0.37286 0.0
H179 H 0.74398 0.06635 0.38616 0.0
H180 H 0.71502 0.04004 0.37536 0.0
H181 H 0.79913 0.97882 0.34117 0.0
H182 H 0.83182 0.00581 0.33707 0.0
H183 H 0.80618 0.99387 0.31820 0.0
H184 H 0.74221 0.13356 0.31640 0.0
H185 H 0.74992 0.10350 0.29873 0.0
H186 H 0.78240 0.12526 0.30933 0.0
H187 H 0.80963 0.07772 0.30070 0.0
H188 H 0.81706 0.03373 0.30506 0.0
H189 H 0.83745 0.05353 0.28238 0.0
H190 H 0.86037 0.05651 0.24961 0.0
H191 H 0.76245 0.04318 0.22501 0.0
H192 H 0.73954 0.04020 0.25778 0.0
H193 H 0.81045 0.05021 0.20386 0.0
H194 H 0.87681 0.05938 0.22618 0.0
H195 H 0.71114 0.12771 0.33466 0.0
H196 H 0.70843 0.11364 0.35825 0.0
H197 H 0.68132 0.15853 0.34646 0.0
H198 H 0.64717 0.20552 0.36101 0.0
H199 H 0.73375 0.24113 0.39172 0.0
H200 H 0.76787 0.19425 0.37711 0.0
H201 H 0.64274 0.25604 0.38266 0.0
H202 H 0.70942 0.27418 0.40248 0.0
C203 C 0.80037 0.68772 0.63042 0.0
C204 C 0.81652 0.66791 0.64557 0.0
C205 C 0.84927 0.67645 0.65191 0.0
C206 C 0.86578 0.65680 0.66701 0.0
C207 C 0.89859 0.66548 0.67322 0.0
C208 C 0.91480 0.69373 0.66429 0.0
C209 C 0.89826 0.71342 0.64924 0.0
C210 C 0.86550 0.70475 0.64304 0.0
C211 C 0.95763 0.68435 0.68695 0.0
C212 C 0.98806 0.70042 0.69186 0.0
C213 C 0.01807 0.68874 0.68336 0.0
C214 C 0.04717 0.70881 0.68561 0.0
C215 C 0.04724 0.73809 0.69804 0.0
C216 C 0.01786 0.74784 0.70786 0.0
C217 C 0.98822 0.72900 0.70474 0.0
C218 C 0.95814 0.74034 0.71337 0.0
C219 C 0.01827 0.65869 0.67147 0.0
C220 C 0.07640 0.75821 0.70009 0.0
C221 C 0.07614 0.70000 0.67528 0.0
C222 C 0.10742 0.72042 0.65097 0.0
C223 C 0.12929 0.69182 0.65591 0.0
C224 C 0.16036 0.68808 0.64667 0.0
C225 C 0.16948 0.71295 0.63251 0.0
C226 C 0.14746 0.74141 0.62746 0.0
C227 C 0.11639 0.74515 0.63671 0.0
C228 C 0.20070 0.70928 0.62343 0.0
C229 C 0.22265 0.68082 0.62861 0.0
C230 C 0.01745 0.77747 0.71998 0.0
C231 C 0.02689 0.79238 0.75112 0.0
C232 C 0.01754 0.82690 0.74512 0.0
C233 C 0.01025 0.85257 0.75913 0.0
C234 C 0.01225 0.84361 0.77909 0.0
C235 C 0.02168 0.80909 0.78506 0.0
C236 C 0.02901 0.78345 0.77106 0.0
C237 C 0.00469 0.86907 0.79314 0.0
C238 C 0.00651 0.85976 0.81305 0.0
O239 O 0.94674 0.70263 0.67039 0.0
O240 O 0.03255 0.76684 0.73743 0.0
O241 O 0.07749 0.72465 0.66043 0.0
H242 H 0.81269 0.70861 0.62397 0.0
H243 H 0.80429 0.64700 0.65206 0.0
H244 H 0.85375 0.63585 0.67358 0.0
H245 H 0.91086 0.65102 0.68441 0.0
H246 H 0.91028 0.73441 0.64270 0.0
H247 H 0.85326 0.71927 0.63188 0.0
H248 H 0.96150 0.65769 0.68401 0.0
H249 H 0.94053 0.68771 0.69808 0.0
H250 H 0.96150 0.76509 0.71946 0.0
H251 H 0.95176 0.72245 0.72422 0.0
H252 H 0.93892 0.74194 0.70275 0.0
H253 H 0.99378 0.65376 0.66659 0.0
H254 H 0.02766 0.63705 0.67958 0.0
H255 H 0.03352 0.66274 0.65957 0.0
H256 H 0.07150 0.77970 0.70900 0.0
H257 H 0.08332 0.76715 0.68639 0.0
H258 H 0.09594 0.74265 0.70628 0.0
H259 H 0.09739 0.70155 0.68443 0.0
H260 H 0.07447 0.67473 0.66958 0.0
H261 H 0.12255 0.67351 0.66646 0.0
H262 H 0.17664 0.66696 0.65034 0.0
H263 H 0.15417 0.75975 0.61693 0.0
H264 H 0.10009 0.76629 0.63306 0.0
H265 H 0.20757 0.72759 0.61292 0.0
H266 H 0.21570 0.66254 0.63912 0.0
H267 H 0.03052 0.79816 0.71388 0.0
H268 H 0.99256 0.78542 0.72224 0.0
H269 H 0.01582 0.83336 0.73034 0.0
H270 H 0.00326 0.87815 0.75474 0.0
H271 H 0.02313 0.80253 0.79985 0.0
H272 H 0.03580 0.75783 0.77544 0.0
H273 H 0.99773 0.89471 0.78884 0.0
H274 H 0.01347 0.83410 0.81729 0.0
C275 C 0.38050 0.79174 0.39641 0.0
C276 C 0.34847 0.80817 0.39761 0.0
C277 C 0.34305 0.84258 0.39013 0.0
C278 C 0.31117 0.85939 0.39129 0.0
C279 C 0.30601 0.89387 0.38380 0.0
C280 C 0.33275 0.91144 0.37521 0.0
C281 C 0.36456 0.89460 0.37400 0.0
C282 C 0.36972 0.86018 0.38148 0.0
C283 C 0.29447 0.95594 0.36743 0.0
C284 C 0.29477 0.98808 0.35716 0.0
C285 C 0.30172 0.01933 0.36711 0.0
C286 C 0.30791 0.05017 0.35637 0.0
C287 C 0.30345 0.05072 0.33595 0.0
C288 C 0.29359 0.02007 0.32620 0.0
C289 C 0.28931 0.98869 0.33682 0.0
C290 C 0.28198 0.95736 0.32696 0.0
C291 C 0.30503 0.01905 0.38761 0.0
C292 C 0.30994 0.08162 0.32530 0.0
C293 C 0.31897 0.08041 0.36596 0.0
C294 C 0.36477 0.11372 0.36922 0.0
C295 C 0.34369 0.13604 0.37999 0.0
C296 C 0.35555 0.16857 0.38660 0.0
C297 C 0.38846 0.17869 0.38241 0.0
C298 C 0.40964 0.15621 0.37175 0.0
C299 C 0.39777 0.12369 0.36515 0.0
C300 C 0.40011 0.21137 0.38890 0.0
C301 C 0.37875 0.23377 0.39948 0.0
C302 C 0.28975 0.02011 0.30578 0.0
C303 C 0.25059 0.03006 0.28213 0.0
C304 C 0.27604 0.02097 0.26909 0.0
C305 C 0.26753 0.01373 0.24955 0.0
C306 C 0.23358 0.01551 0.24312 0.0
C307 C 0.20817 0.02468 0.25617 0.0
C308 C 0.21668 0.03197 0.27570 0.0
C309 C 0.22489 0.00799 0.22365 0.0
C310 C 0.19086 0.00957 0.21742 0.0
O311 O 0.32784 0.94500 0.36767 0.0
O312 O 0.25870 0.03560 0.30144 0.0
O313 O 0.35282 0.08239 0.36226 0.0
H314 H 0.40005 0.80508 0.38997 0.0
H315 H 0.32886 0.79492 0.40404 0.0
H316 H 0.29142 0.84635 0.39768 0.0
H317 H 0.28243 0.90635 0.38461 0.0
H318 H 0.38429 0.90763 0.36757 0.0
H319 H 0.39328 0.84771 0.38062 0.0
H320 H 0.28607 0.95950 0.38154 0.0
H321 H 0.27959 0.93803 0.35995 0.0
H322 H 0.28476 0.96130 0.31205 0.0
H323 H 0.25732 0.95026 0.32962 0.0
H324 H 0.29858 0.93734 0.33192 0.0
H325 H 0.30999 0.99336 0.39260 0.0
H326 H 0.28259 0.02842 0.39345 0.0
H327 H 0.32460 0.03519 0.39200 0.0
H328 H 0.30699 0.07683 0.31044 0.0
H329 H 0.33456 0.08913 0.32838 0.0
H330 H 0.29325 0.10173 0.32928 0.0
H331 H 0.30606 0.10263 0.36029 0.0
H332 H 0.31535 0.07821 0.38090 0.0
H333 H 0.31928 0.12856 0.38301 0.0
H334 H 0.33995 0.18518 0.39455 0.0
H335 H 0.43404 0.16366 0.36872 0.0
H336 H 0.41335 0.10705 0.35718 0.0
H337 H 0.42447 0.21899 0.38585 0.0
H338 H 0.35441 0.22608 0.40251 0.0
H339 H 0.30869 0.03424 0.29926 0.0
H340 H 0.29027 0.99419 0.30090 0.0
H341 H 0.30111 0.01941 0.27393 0.0
H342 H 0.28631 0.00693 0.23986 0.0
H343 H 0.18305 0.02597 0.25138 0.0
H344 H 0.19790 0.03856 0.28541 0.0
H345 H 0.24357 0.00122 0.21389 0.0
H346 H 0.17225 0.01634 0.22723 0.0
C347 C 0.65701 0.49361 0.54589 0.0
C348 C 0.68401 0.48226 0.55830 0.0
C349 C 0.71097 0.47091 0.57072 0.0
C350 C 0.73639 0.44830 0.56368 0.0
C351 C 0.76336 0.43696 0.57610 0.0
C352 C 0.76489 0.44820 0.59557 0.0
C353 C 0.73948 0.47081 0.60261 0.0
C354 C 0.71252 0.48217 0.59019 0.0
C355 C 0.79186 0.43685 0.60799 0.0
C356 C 0.81881 0.42552 0.62043 0.0
H357 H 0.73524 0.43995 0.54927 0.0
H358 H 0.78219 0.42025 0.57088 0.0
H359 H 0.74062 0.47913 0.61703 0.0
H360 H 0.69371 0.49892 0.59540 0.0
C361 C 0.57247 0.46399 0.47101 0.0
C362 C 0.58821 0.43692 0.46043 0.0
C363 C 0.60391 0.40984 0.44984 0.0
C364 C 0.63198 0.41719 0.43851 0.0
C365 C 0.64769 0.39011 0.42794 0.0
C366 C 0.63530 0.35568 0.42868 0.0
C367 C 0.60724 0.34832 0.44001 0.0
C368 C 0.59155 0.37540 0.45060 0.0
C369 C 0.65102 0.32859 0.41810 0.0
C370 C 0.66670 0.30149 0.40752 0.0
H371 H 0.64112 0.44268 0.43795 0.0
H372 H 0.66848 0.39554 0.41956 0.0
H373 H 0.59808 0.32283 0.44056 0.0
H374 H 0.57078 0.36996 0.45899 0.0
C375 C 0.42527 0.59033 0.54564 0.0
C376 C 0.39869 0.60323 0.55693 0.0
C377 C 0.37210 0.61617 0.56821 0.0
C378 C 0.34545 0.59409 0.57292 0.0
C379 C 0.31887 0.60703 0.58420 0.0
C380 C 0.31893 0.64205 0.59076 0.0
C381 C 0.34558 0.66412 0.58606 0.0
C382 C 0.37217 0.65118 0.57479 0.0
C383 C 0.29234 0.65498 0.60205 0.0
C384 C 0.26577 0.66794 0.61333 0.0
H385 H 0.34539 0.56818 0.56804 0.0
H386 H 0.29915 0.59068 0.58770 0.0
H387 H 0.34562 0.69004 0.59093 0.0
H388 H 0.39191 0.66751 0.57131 0.0
C389 C 0.58219 0.64990 0.48559 0.0
C390 C 0.59528 0.67630 0.47358 0.0
C391 C 0.60839 0.70271 0.46160 0.0
C392 C 0.61963 0.69429 0.44290 0.0
C393 C 0.63272 0.72071 0.43091 0.0
C394 C 0.63463 0.75554 0.43764 0.0
C395 C 0.62340 0.76396 0.45634 0.0
C396 C 0.61027 0.73755 0.46832 0.0
C397 C 0.64773 0.78195 0.42565 0.0
C398 C 0.66084 0.80839 0.41368 0.0
H399 H 0.61825 0.66850 0.43793 0.0
H400 H 0.64101 0.71448 0.41706 0.0
H401 H 0.62480 0.78975 0.46131 0.0
H402 H 0.60194 0.74379 0.48216 0.0
C403 C 0.48433 0.42618 0.48447 0.0
C404 C 0.46968 0.40073 0.47235 0.0
C405 C 0.45502 0.37528 0.46026 0.0
C406 C 0.44614 0.38383 0.44076 0.0
C407 C 0.43149 0.35837 0.42866 0.0
C408 C 0.42568 0.32437 0.43607 0.0
C409 C 0.43457 0.31581 0.45557 0.0
C410 C 0.44924 0.34126 0.46766 0.0
C411 C 0.41102 0.29891 0.42397 0.0
C412 C 0.39637 0.27343 0.41189 0.0
H413 H 0.45040 0.40901 0.43528 0.0
H414 H 0.42494 0.36469 0.41422 0.0
H415 H 0.43028 0.29063 0.46104 0.0
H416 H 0.45583 0.33493 0.48209 0.0
C417 C 0.46014 0.50658 0.56272 0.0
C418 C 0.43433 0.49187 0.57364 0.0
C419 C 0.40850 0.47719 0.58455 0.0
C420 C 0.40167 0.44109 0.58299 0.0
C421 C 0.37585 0.42641 0.59391 0.0
C422 C 0.35684 0.44786 0.60636 0.0
C423 C 0.36367 0.48396 0.60791 0.0
C424 C 0.38951 0.49863 0.59701 0.0
C425 C 0.33102 0.43317 0.61727 0.0
C426 C 0.30519 0.41853 0.62819 0.0
H427 H 0.41572 0.42522 0.57376 0.0
H428 H 0.37081 0.39968 0.59277 0.0
H429 H 0.34960 0.49983 0.61714 0.0
H430 H 0.39458 0.52535 0.59816 0.0
C431 C 0.49757 0.60928 0.47018 0.0
C432 C 0.47920 0.63492 0.45905 0.0
C433 C 0.46085 0.66058 0.44793 0.0
C434 C 0.45253 0.65427 0.42824 0.0
C435 C 0.43417 0.67993 0.41713 0.0
C436 C 0.42416 0.71191 0.42570 0.0
C437 C 0.43247 0.71822 0.44539 0.0
C438 C 0.45081 0.69255 0.45651 0.0
C439 C 0.40580 0.73757 0.41458 0.0
C440 C 0.38744 0.76325 0.40348 0.0
H441 H 0.45997 0.63061 0.42189 0.0
H442 H 0.42798 0.67524 0.40256 0.0
H443 H 0.42505 0.74190 0.45174 0.0
H444 H 0.45696 0.69722 0.47109 0.0
C445 C 0.61367 0.57529 0.56359 0.0
C446 C 0.63992 0.59233 0.57359 0.0
C447 C 0.66615 0.60942 0.58358 0.0
C448 C 0.67877 0.59579 0.60155 0.0
C449 C 0.70501 0.61286 0.61154 0.0
C450 C 0.71860 0.64359 0.60357 0.0
C451 C 0.70598 0.65722 0.58560 0.0
C452 C 0.67976 0.64013 0.57560 0.0
C453 C 0.74484 0.66067 0.61356 0.0
C454 C 0.77107 0.67777 0.62354 0.0
H455 H 0.66869 0.57306 0.60746 0.0
H456 H 0.71438 0.60275 0.62483 0.0
H457 H 0.71605 0.67997 0.57970 0.0
H458 H 0.67042 0.65021 0.56230 0.0
C459 C 0.97758 0.02832 0.08162 0.0
C460 C 0.96153 0.03293 0.09949 0.0
C461 C 0.94545 0.03750 0.11735 0.0
C462 C 0.96475 0.04262 0.13453 0.0
C463 C 0.94867 0.04722 0.15239 0.0
C464 C 0.91330 0.04664 0.15307 0.0
C465 C 0.89400 0.04153 0.13590 0.0
C466 C 0.91008 0.03697 0.11803 0.0
C467 C 0.89723 0.05123 0.17094 0.0
C468 C 0.88112 0.05581 0.18879 0.0
H469 H 0.99094 0.04301 0.13403 0.0
H470 H 0.96296 0.05104 0.16511 0.0
H471 H 0.86781 0.04112 0.13640 0.0
H472 H 0.89579 0.03319 0.10531 0.0
C473 C 0.04443 0.08638 0.94489 0.0
C474 C 0.04763 0.10567 0.92742 0.0
C475 C 0.05081 0.12493 0.90995 0.0
C476 C 0.05495 0.16165 0.91046 0.0
C477 C 0.05814 0.18091 0.89299 0.0
C478 C 0.05714 0.16345 0.87500 0.0
C479 C 0.05300 0.12673 0.87449 0.0
C480 C 0.04984 0.10746 0.89196 0.0
C481 C 0.06033 0.18271 0.85753 0.0
C482 C 0.06350 0.20194 0.84004 0.0
H483 H 0.05566 0.17458 0.92377 0.0
H484 H 0.06124 0.20809 0.89336 0.0
H485 H 0.05227 0.11380 0.86117 0.0
H486 H 0.04678 0.08028 0.89159 0.0
C487 C 0.07766 0.03424 0.08206 0.0
C488 C 0.09385 0.02967 0.10043 0.0
C489 C 0.11001 0.02513 0.11882 0.0
C490 C 0.12757 0.99335 0.12346 0.0
C491 C 0.14375 0.98882 0.14184 0.0
C492 C 0.14231 0.01605 0.15558 0.0
C493 C 0.12476 0.04783 0.15093 0.0
C494 C 0.10861 0.05238 0.13255 0.0
C495 C 0.15849 0.01150 0.17396 0.0
C496 C 0.17464 0.00699 0.19235 0.0
H497 H 0.12860 0.97318 0.11330 0.0
H498 H 0.15677 0.96530 0.14528 0.0
H499 H 0.12371 0.06799 0.16110 0.0
H500 H 0.09562 0.07591 0.12910 0.0
C501 C 0.01488 0.98425 0.94485 0.0
C502 C 0.01278 0.96815 0.92650 0.0
C503 C 0.01071 0.95208 0.90814 0.0
C504 C 0.00791 0.91526 0.90688 0.0
C505 C 0.00582 0.89919 0.88851 0.0
C506 C 0.00659 0.91994 0.87141 0.0
C507 C 0.00940 0.95676 0.87267 0.0
C508 C 0.01145 0.97284 0.89103 0.0
C509 C 0.00451 0.90387 0.85305 0.0
C510 C 0.00245 0.88783 0.83468 0.0
H511 H 0.00737 0.89989 0.91954 0.0
H512 H 0.00372 0.87194 0.88758 0.0
H513 H 0.00995 0.97213 0.86000 0.0
H514 H 0.01351 0.00010 0.89196 0.0
