data_{}
_symmetry_space_group_name_H-M    P1
_symmetry_Int_Tables_number       1
_symmetry_cell_setting            triclinic
loop_
_symmetry_equiv_pos_as_xyz
'x, y, z'
_cell_length_a     72.120
_cell_length_b     28.648
_cell_length_c     70.507
_cell_angle_alpha  90.811
_cell_angle_beta   90.248
_cell_angle_gamma  109.510
loop_
_atom_site_label
_atom_site_type_symbol
_atom_site_fract_x
_atom_site_fract_y
_atom_site_fract_z
_atom_type_partial_charge
C0 C 0.03199 0.01551 0.66277 0.0
C1 C 0.04283 0.00201 0.67668 0.0
C2 C 0.03555 0.95563 0.68509 0.0
C3 C 0.01764 0.92217 0.67953 0.0
C4 C 0.00676 0.93571 0.66590 0.0
C5 C 0.01369 0.98215 0.65751 0.0
C6 C 0.03232 0.11772 0.66361 0.0
C7 C 0.04295 0.16762 0.66439 0.0
C8 C 0.03628 0.20235 0.67247 0.0
C9 C 0.01786 0.18831 0.68015 0.0
C10 C 0.00598 0.13826 0.67928 0.0
C11 C 0.01339 0.10368 0.67124 0.0
C12 C 0.03281 0.06682 0.62778 0.0
C13 C 0.04052 0.04045 0.61518 0.0
C14 C 0.03335 0.03101 0.59659 0.0
C15 C 0.01858 0.04894 0.59045 0.0
O16 O 0.06438 0.09338 0.65282 0.0
C17 C 0.01117 0.07564 0.60304 0.0
C18 C 0.01843 0.08555 0.62147 0.0
P19 P 0.04249 0.07547 0.65192 0.0
H20 H 0.05518 0.02421 0.68051 0.0
H21 H 0.04290 0.94717 0.69466 0.0
H22 H 0.99444 0.91327 0.66215 0.0
H23 H 0.00600 0.99092 0.64834 0.0
H24 H 0.05555 0.17827 0.65904 0.0
H25 H 0.04430 0.23590 0.67278 0.0
H26 H 0.99314 0.12822 0.68412 0.0
H27 H 0.00553 0.07010 0.67093 0.0
H28 H 0.05065 0.02888 0.61921 0.0
H29 H 0.03844 0.01263 0.58822 0.0
H30 H 0.00106 0.08722 0.59905 0.0
H31 H 0.01361 0.10486 0.62967 0.0
C32 C 0.02855 0.08636 0.37504 0.0
C33 C 0.03914 0.11788 0.36115 0.0
C34 C 0.03171 0.15190 0.35273 0.0
C35 C 0.01390 0.15533 0.35826 0.0
C36 C 0.00326 0.12369 0.37187 0.0
C37 C 0.01034 0.08902 0.38026 0.0
C38 C 0.02886 0.98469 0.37420 0.0
C39 C 0.03948 0.95266 0.37344 0.0
C40 C 0.03266 0.90659 0.36535 0.0
C41 C 0.01411 0.88955 0.35764 0.0
C42 C 0.00224 0.91962 0.35848 0.0
C43 C 0.00980 0.96680 0.36653 0.0
C44 C 0.02999 0.03695 0.41003 0.0
C45 C 0.03793 0.07649 0.42265 0.0
C46 C 0.03109 0.07413 0.44123 0.0
C47 C 0.01643 0.03147 0.44733 0.0
O48 O 0.06112 0.06312 0.38506 0.0
C49 C 0.00880 0.99211 0.43473 0.0
C50 C 0.01572 0.99413 0.41631 0.0
P51 P 0.03924 0.04421 0.38591 0.0
H52 H 0.05142 0.11639 0.35735 0.0
H53 H 0.03888 0.17256 0.34317 0.0
H54 H 0.99101 0.12547 0.37559 0.0
H55 H 0.00282 0.06747 0.38942 0.0
H56 H 0.05217 0.96327 0.37882 0.0
H57 H 0.04068 0.88653 0.36505 0.0
H58 H 0.98931 0.90801 0.35362 0.0
H59 H 0.00194 0.98715 0.36683 0.0
H60 H 0.04798 0.10501 0.41863 0.0
H61 H 0.03633 0.10121 0.44960 0.0
H62 H 0.99876 0.96359 0.43870 0.0
H63 H 0.01076 0.96659 0.40810 0.0
H64 H 0.03843 0.58498 0.72584 0.0
H65 H 0.03045 0.61521 0.74063 0.0
C66 C 0.00218 0.56455 0.71420 0.0
C67 C 0.00924 0.54849 0.73271 0.0
H68 H 0.01058 0.48187 0.74274 0.0
H69 H 0.99573 0.47418 0.72559 0.0
C70 C 0.99601 0.55246 0.74913 0.0
O71 O 0.99990 0.61122 0.71790 0.0
C72 C 0.03031 0.58231 0.73698 0.0
O73 O 0.97609 0.52804 0.74310 0.0
O74 O 0.03764 0.56067 0.75220 0.0
H75 H 0.98986 0.54016 0.71004 0.0
H76 H 0.01185 0.56786 0.70433 0.0
O77 O 0.02367 0.49405 0.71765 0.0
C78 C 0.00847 0.49464 0.73054 0.0
H79 H 0.99810 0.58696 0.75223 0.0
H80 H 0.99894 0.53672 0.76030 0.0
H81 H 0.03542 0.52815 0.31267 0.0
H82 H 0.02756 0.48461 0.29767 0.0
C83 C 0.99990 0.48751 0.32335 0.0
C84 C 0.00629 0.51559 0.30502 0.0
H85 H 0.00772 0.58455 0.29504 0.0
H86 H 0.99272 0.56712 0.31179 0.0
C87 C 0.99319 0.48948 0.28826 0.0
O88 O 0.99649 0.43649 0.31957 0.0
C89 C 0.02739 0.51725 0.30132 0.0
O90 O 0.97322 0.48035 0.29376 0.0
O91 O 0.03485 0.55134 0.28629 0.0
H92 H 0.98671 0.49115 0.32718 0.0
H93 H 0.00865 0.50039 0.33347 0.0
O94 O 0.02058 0.59419 0.32047 0.0
C95 C 0.00550 0.56813 0.30717 0.0
H96 H 0.99531 0.45852 0.28521 0.0
H97 H 0.99623 0.51025 0.27716 0.0
C98 C 0.75652 0.23048 0.14002 0.0
C99 C 0.74440 0.18633 0.12745 0.0
C100 C 0.73268 0.19518 0.11038 0.0
C101 C 0.72043 0.15139 0.09770 0.0
C102 C 0.70871 0.16062 0.08069 0.0
C103 C 0.70924 0.21358 0.07642 0.0
C104 C 0.72152 0.25734 0.08906 0.0
C105 C 0.73323 0.24812 0.10605 0.0
C106 C 0.68932 0.17775 0.04719 0.0
C107 C 0.68121 0.19791 0.03019 0.0
C108 C 0.66043 0.20147 0.03095 0.0
C109 C 0.65389 0.23040 0.01559 0.0
C110 C 0.66709 0.25035 0.99837 0.0
C111 C 0.68713 0.24250 0.99678 0.0
C112 C 0.69420 0.21631 0.01274 0.0
C113 C 0.71492 0.21210 0.01196 0.0
C114 C 0.64692 0.17982 0.04784 0.0
C115 C 0.66050 0.27963 0.98313 0.0
C116 C 0.63429 0.24011 0.01749 0.0
C117 C 0.62141 0.30840 0.02322 0.0
C118 C 0.60118 0.26887 0.01942 0.0
C119 C 0.58263 0.28401 0.01859 0.0
C120 C 0.58435 0.33865 0.02156 0.0
C121 C 0.60459 0.37813 0.02552 0.0
C122 C 0.62313 0.36298 0.02635 0.0
C123 C 0.56579 0.35368 0.02053 0.0
C124 C 0.54563 0.31401 0.01648 0.0
C125 C 0.70063 0.26323 0.97987 0.0
C126 C 0.70777 0.23946 0.94789 0.0
C127 C 0.72378 0.29086 0.94739 0.0
C128 C 0.73960 0.30227 0.93194 0.0
C129 C 0.73940 0.26220 0.91708 0.0
C130 C 0.72335 0.21086 0.91757 0.0
C131 C 0.70751 0.19948 0.93300 0.0
C132 C 0.75529 0.27322 0.90172 0.0
C133 C 0.75504 0.23273 0.88703 0.0
O134 O 0.69800 0.22306 0.05970 0.0
O135 O 0.69286 0.22742 0.96354 0.0
O136 O 0.63963 0.29381 0.02341 0.0
H137 H 0.75678 0.26950 0.13664 0.0
H138 H 0.74410 0.14726 0.13077 0.0
H139 H 0.72003 0.11219 0.10090 0.0
H140 H 0.69965 0.12830 0.07126 0.0
H141 H 0.72195 0.29654 0.08581 0.0
H142 H 0.74230 0.28047 0.11543 0.0
H143 H 0.67707 0.14830 0.05480 0.0
H144 H 0.70124 0.16235 0.04237 0.0
H145 H 0.72355 0.23605 0.00010 0.0
H146 H 0.71373 0.17187 0.00922 0.0
H147 H 0.72281 0.22546 0.02607 0.0
H148 H 0.65618 0.17529 0.06038 0.0
H149 H 0.63603 0.14205 0.04352 0.0
H150 H 0.63847 0.20552 0.05207 0.0
H151 H 0.67259 0.29351 0.97216 0.0
H152 H 0.65758 0.31251 0.99019 0.0
H153 H 0.64645 0.25468 0.97590 0.0
H154 H 0.62626 0.23340 0.00323 0.0
H155 H 0.62472 0.21528 0.02870 0.0
H156 H 0.59996 0.22846 0.01714 0.0
H157 H 0.56764 0.25482 0.01573 0.0
H158 H 0.60584 0.41856 0.02779 0.0
H159 H 0.63815 0.39217 0.02920 0.0
H160 H 0.56696 0.39408 0.02274 0.0
H161 H 0.54450 0.27365 0.01429 0.0
H162 H 0.70051 0.30165 0.97604 0.0
H163 H 0.71625 0.26495 0.98359 0.0
H164 H 0.72397 0.32027 0.95852 0.0
H165 H 0.75151 0.34027 0.93155 0.0
H166 H 0.72324 0.18126 0.90655 0.0
H167 H 0.69569 0.16141 0.93347 0.0
H168 H 0.76722 0.31117 0.90123 0.0
H169 H 0.74309 0.19483 0.88758 0.0
C170 C 0.25948 0.83736 0.89778 0.0
C171 C 0.25445 0.78900 0.90898 0.0
C172 C 0.26728 0.78609 0.92613 0.0
C173 C 0.26247 0.73792 0.93744 0.0
C174 C 0.27543 0.73536 0.95456 0.0
C175 C 0.29317 0.78092 0.96028 0.0
C176 C 0.29792 0.82908 0.94902 0.0
C177 C 0.28498 0.83164 0.93193 0.0
C178 C 0.29739 0.73212 0.98826 0.0
C179 C 0.31101 0.74164 0.00570 0.0
C180 C 0.33019 0.72947 0.00481 0.0
C181 C 0.34551 0.74789 0.02087 0.0
C182 C 0.34064 0.77289 0.03877 0.0
C183 C 0.32060 0.78072 0.04035 0.0
C184 C 0.30578 0.76514 0.02378 0.0
C185 C 0.28642 0.77668 0.02467 0.0
C186 C 0.33473 0.70274 0.98720 0.0
C187 C 0.35612 0.79159 0.05471 0.0
C188 C 0.36582 0.74202 0.01903 0.0
C189 C 0.40063 0.79202 0.01506 0.0
C190 C 0.40437 0.74263 0.01754 0.0
C191 C 0.42560 0.74192 0.01859 0.0
C192 C 0.44303 0.79060 0.01715 0.0
C193 C 0.43927 0.83997 0.01451 0.0
C194 C 0.41805 0.84067 0.01347 0.0
C195 C 0.46423 0.78976 0.01839 0.0
C196 C 0.46786 0.74027 0.02112 0.0
C197 C 0.31575 0.80665 0.05795 0.0
C198 C 0.30073 0.78789 0.08930 0.0
C199 C 0.30464 0.84392 0.09140 0.0
C200 C 0.29459 0.86371 0.10731 0.0
C201 C 0.28063 0.82737 0.12104 0.0
C202 C 0.27678 0.77136 0.11895 0.0
C203 C 0.28684 0.75160 0.10307 0.0
C204 C 0.27040 0.84688 0.13686 0.0
C205 C 0.25634 0.81018 0.15039 0.0
O206 O 0.30579 0.77895 0.97712 0.0
O207 O 0.30976 0.76826 0.07318 0.0
O208 O 0.37987 0.79289 0.01466 0.0
H209 H 0.27266 0.87080 0.90223 0.0
H210 H 0.24129 0.75547 0.90457 0.0
H211 H 0.24935 0.70421 0.93315 0.0
H212 H 0.27190 0.69980 0.96297 0.0
H213 H 0.31102 0.86281 0.95334 0.0
H214 H 0.28851 0.86724 0.92356 0.0
H215 H 0.29796 0.69856 0.97971 0.0
H216 H 0.28169 0.72710 0.99278 0.0
H217 H 0.28699 0.80236 0.03732 0.0
H218 H 0.27351 0.74083 0.02627 0.0
H219 H 0.28451 0.79558 0.01103 0.0
H220 H 0.32543 0.70705 0.97466 0.0
H221 H 0.33100 0.66169 0.99035 0.0
H222 H 0.35099 0.71913 0.98359 0.0
H223 H 0.35026 0.81124 0.06619 0.0
H224 H 0.37014 0.81855 0.04855 0.0
H225 H 0.35950 0.75892 0.06109 0.0
H226 H 0.37015 0.72874 0.03300 0.0
H227 H 0.36574 0.71482 0.00705 0.0
H228 H 0.39143 0.70665 0.01868 0.0
H229 H 0.42841 0.70539 0.02047 0.0
H230 H 0.45219 0.87598 0.01337 0.0
H231 H 0.41522 0.87721 0.01159 0.0
H232 H 0.47720 0.82569 0.01732 0.0
H233 H 0.45486 0.70441 0.02218 0.0
H234 H 0.32903 0.83925 0.06285 0.0
H235 H 0.30293 0.82007 0.05446 0.0
H236 H 0.31485 0.87065 0.08111 0.0
H237 H 0.29742 0.90518 0.10889 0.0
H238 H 0.26643 0.74455 0.12913 0.0
H239 H 0.28392 0.71013 0.10141 0.0
H240 H 0.27319 0.88832 0.13853 0.0
H241 H 0.25358 0.76877 0.14867 0.0
C242 C 0.95277 0.51073 0.76276 0.0
C243 C 0.93415 0.48373 0.77408 0.0
C244 C 0.91552 0.45672 0.78539 0.0
C245 C 0.91440 0.41036 0.79675 0.0
C246 C 0.89577 0.38339 0.80806 0.0
C247 C 0.87827 0.40276 0.80801 0.0
C248 C 0.87938 0.44913 0.79665 0.0
C249 C 0.89801 0.47609 0.78534 0.0
C250 C 0.85965 0.37580 0.81934 0.0
C251 C 0.84214 0.39518 0.81930 0.0
C252 C 0.82352 0.36819 0.83063 0.0
C253 C 0.82241 0.32181 0.84198 0.0
C254 C 0.83992 0.30242 0.84201 0.0
C255 C 0.85853 0.32941 0.83069 0.0
C256 C 0.80379 0.29481 0.85330 0.0
C257 C 0.78518 0.26775 0.86463 0.0
H258 H 0.92736 0.39600 0.79679 0.0
H259 H 0.89495 0.34907 0.81648 0.0
H260 H 0.86642 0.46348 0.79661 0.0
H261 H 0.89884 0.51040 0.77691 0.0
H262 H 0.84295 0.42950 0.81090 0.0
H263 H 0.81056 0.38255 0.83061 0.0
H264 H 0.83910 0.26809 0.85042 0.0
H265 H 0.87150 0.31506 0.83071 0.0
C266 C 0.95115 0.44217 0.27388 0.0
C267 C 0.93242 0.42029 0.26164 0.0
C268 C 0.91368 0.39842 0.24940 0.0
C269 C 0.91394 0.36653 0.23170 0.0
C270 C 0.89520 0.34467 0.21947 0.0
C271 C 0.87621 0.35470 0.22494 0.0
C272 C 0.87596 0.38660 0.24264 0.0
C273 C 0.89469 0.40846 0.25486 0.0
C274 C 0.85747 0.33279 0.21271 0.0
C275 C 0.83848 0.34279 0.21818 0.0
C276 C 0.81974 0.32088 0.20594 0.0
C277 C 0.82001 0.28902 0.18823 0.0
C278 C 0.83901 0.27903 0.18276 0.0
C279 C 0.85774 0.30093 0.19500 0.0
C280 C 0.80128 0.26711 0.17600 0.0
C281 C 0.78256 0.24519 0.16373 0.0
H282 H 0.92800 0.35911 0.22765 0.0
H283 H 0.89539 0.32105 0.20637 0.0
H284 H 0.86190 0.39401 0.24668 0.0
H285 H 0.89451 0.43209 0.26796 0.0
H286 H 0.83827 0.36639 0.23128 0.0
H287 H 0.80567 0.32824 0.20999 0.0
H288 H 0.83921 0.25542 0.16966 0.0
H289 H 0.87181 0.29355 0.19095 0.0
C290 C 0.06501 0.58087 0.76396 0.0
C291 C 0.08351 0.60668 0.77609 0.0
C292 C 0.10202 0.63249 0.78822 0.0
C293 C 0.10407 0.68120 0.79893 0.0
C294 C 0.12257 0.70698 0.81106 0.0
C295 C 0.13903 0.68406 0.81247 0.0
C296 C 0.13698 0.63535 0.80175 0.0
C297 C 0.11848 0.60958 0.78962 0.0
C298 C 0.15752 0.70984 0.82461 0.0
C299 C 0.17398 0.68691 0.82603 0.0
C300 C 0.19247 0.71271 0.83817 0.0
C301 C 0.19452 0.76144 0.84887 0.0
C302 C 0.17806 0.78437 0.84745 0.0
C303 C 0.15957 0.75857 0.83531 0.0
C304 C 0.21301 0.78725 0.86101 0.0
C305 C 0.23150 0.81312 0.87315 0.0
H306 H 0.09188 0.69818 0.79789 0.0
H307 H 0.12409 0.74303 0.81900 0.0
H308 H 0.14916 0.61838 0.80279 0.0
H309 H 0.11696 0.57354 0.78168 0.0
H310 H 0.17247 0.65085 0.81810 0.0
H311 H 0.20465 0.69573 0.83924 0.0
H312 H 0.17957 0.82043 0.85538 0.0
H313 H 0.14738 0.77553 0.83425 0.0
C314 C 0.06123 0.59377 0.27622 0.0
C315 C 0.08010 0.61689 0.26471 0.0
C316 C 0.09897 0.64001 0.25320 0.0
C317 C 0.11282 0.61019 0.24920 0.0
C318 C 0.13168 0.63334 0.23769 0.0
C319 C 0.13670 0.68630 0.23017 0.0
C320 C 0.12285 0.71612 0.23417 0.0
C321 C 0.10399 0.69298 0.24569 0.0
C322 C 0.15555 0.70941 0.21865 0.0
C323 C 0.16057 0.76236 0.21112 0.0
C324 C 0.17943 0.78545 0.19960 0.0
C325 C 0.19328 0.75563 0.19562 0.0
C326 C 0.18826 0.70268 0.20315 0.0
C327 C 0.16940 0.67958 0.21467 0.0
C328 C 0.21214 0.77872 0.18410 0.0
C329 C 0.23102 0.80176 0.17259 0.0
H330 H 0.10910 0.57099 0.25477 0.0
H331 H 0.14192 0.61127 0.23473 0.0
H332 H 0.12656 0.75532 0.22861 0.0
H333 H 0.09375 0.71505 0.24866 0.0
H334 H 0.15033 0.78445 0.21407 0.0
H335 H 0.18315 0.82464 0.19402 0.0
H336 H 0.19851 0.68059 0.20020 0.0
H337 H 0.16568 0.64039 0.22025 0.0
C338 C 0.50237 0.57621 0.01961 0.0
C339 C 0.48727 0.53067 0.00996 0.0
C340 C 0.49292 0.48338 0.00922 0.0
C341 C 0.51293 0.48782 0.01826 0.0
C342 C 0.51140 0.50861 0.03823 0.0
C343 C 0.50575 0.55591 0.03896 0.0
C344 C 0.52146 0.58041 0.00899 0.0
C345 C 0.52711 0.53311 0.00826 0.0
C346 C 0.49672 0.62350 0.02032 0.0
C347 C 0.49106 0.67079 0.02101 0.0
C348 C 0.51858 0.44053 0.01752 0.0
C349 C 0.52423 0.39324 0.01677 0.0
H350 H 0.47298 0.53339 0.00392 0.0
H351 H 0.48252 0.44809 0.00230 0.0
H352 H 0.51438 0.48907 0.05128 0.0
H353 H 0.50432 0.57360 0.05322 0.0
H354 H 0.53040 0.61692 0.00228 0.0
H355 H 0.54104 0.53321 0.00010 0.0
H356 H 0.02916 0.22966 0.67978 0.0
H357 H 0.00223 0.27630 0.67829 0.0
H358 H 0.02754 0.31037 0.71356 0.0
H359 H 0.03449 0.31722 0.68743 0.0
H360 H 0.00609 0.44613 0.71913 0.0
H361 H 0.03302 0.39949 0.72062 0.0
H362 H 0.00771 0.36541 0.68535 0.0
H363 H 0.00010 0.35857 0.71148 0.0
C364 C 0.01893 0.23204 0.68679 0.0
C365 C 0.00841 0.26947 0.68980 0.0
C366 C 0.02303 0.31909 0.69764 0.0
C367 C 0.01632 0.44374 0.71212 0.0
C368 C 0.02684 0.40632 0.70911 0.0
C369 C 0.01222 0.35670 0.70127 0.0
H370 H 0.00104 0.87447 0.67418 0.0
H371 H 0.02729 0.82927 0.68305 0.0
H372 H 0.99138 0.78957 0.70778 0.0
H373 H 0.99391 0.78625 0.68093 0.0
H374 H 0.01058 0.65469 0.72283 0.0
H375 H 0.98433 0.69989 0.71396 0.0
H376 H 0.02024 0.73959 0.68923 0.0
H377 H 0.01771 0.74291 0.71608 0.0
C378 C 0.00829 0.87145 0.68440 0.0
C379 C 0.01743 0.83421 0.69156 0.0
C380 C 0.00122 0.78333 0.69458 0.0
C381 C 0.00333 0.65771 0.71261 0.0
C382 C 0.99419 0.69494 0.70545 0.0
C383 C 0.01040 0.74582 0.70243 0.0
H384 H 0.99582 0.84581 0.34527 0.0
H385 H 0.02727 0.82258 0.33332 0.0
H386 H 0.00010 0.73843 0.35652 0.0
H387 H 0.99590 0.76494 0.33317 0.0
H388 H 0.03249 0.63385 0.33166 0.0
H389 H 0.00105 0.65707 0.34361 0.0
H390 H 0.02734 0.74122 0.32040 0.0
H391 H 0.03241 0.71471 0.34375 0.0
C392 C 0.00620 0.83889 0.35040 0.0
C393 C 0.01960 0.81003 0.34467 0.0
C394 C 0.00732 0.75469 0.34109 0.0
C395 C 0.02211 0.64076 0.32653 0.0
C396 C 0.00871 0.66963 0.33226 0.0
C397 C 0.02099 0.72496 0.33584 0.0
H398 H 0.02244 0.19012 0.34404 0.0
H399 H 0.98894 0.20938 0.33661 0.0
H400 H 0.01869 0.29989 0.35498 0.0
H401 H 0.01964 0.26713 0.33146 0.0
H402 H 0.98224 0.39643 0.33415 0.0
H403 H 0.01574 0.37716 0.34159 0.0
H404 H 0.98599 0.28665 0.32321 0.0
H405 H 0.98504 0.31941 0.34673 0.0
C406 C 0.01304 0.19825 0.35054 0.0
C407 C 0.99853 0.22513 0.34658 0.0
C408 C 0.00969 0.27933 0.34082 0.0
C409 C 0.99164 0.38829 0.32765 0.0
C410 C 0.00616 0.36141 0.33161 0.0
C411 C 0.99499 0.30721 0.33737 0.0
H412 H 0.98373 0.01226 0.50579 0.0
N413 N 0.03097 0.04481 0.53882 0.0
C414 C 0.01173 0.03308 0.46941 0.0
C415 C 0.01304 0.03651 0.50844 0.0
N416 N 0.99677 0.03284 0.53966 0.0
C417 C 0.99510 0.02174 0.47940 0.0
C418 C 0.02925 0.04704 0.47904 0.0
H419 H 0.98295 0.01340 0.47299 0.0
H420 H 0.04116 0.05434 0.47246 0.0
H421 H 0.04291 0.04872 0.56471 0.0
C422 C 0.03110 0.04525 0.55823 0.0
H423 H 0.04139 0.06286 0.50421 0.0
C424 C 0.01355 0.03783 0.52949 0.0
C425 C 0.02919 0.05018 0.49791 0.0
C426 C 0.99555 0.02206 0.49900 0.0
C427 C 0.99701 0.03481 0.55852 0.0
C428 C 0.01487 0.04087 0.56824 0.0
H429 H 0.98551 0.03223 0.56527 0.0
