data_{}
_symmetry_space_group_name_H-M    P1
_symmetry_Int_Tables_number       1
_symmetry_cell_setting            triclinic
loop_
_symmetry_equiv_pos_as_xyz
'x, y, z'
_cell_length_a     72.560
_cell_length_b     72.498
_cell_length_c     36.368
_cell_angle_alpha  90.682
_cell_angle_beta   90.680
_cell_angle_gamma  90.404
loop_
_atom_site_label
_atom_site_type_symbol
_atom_site_fract_x
_atom_site_fract_y
_atom_site_fract_z
_atom_type_partial_charge
H0 H 0.97034 0.47213 0.94524 0.0
H1 H 0.03275 0.48635 0.93253 0.0
H2 H 0.03081 0.48614 0.97543 0.0
H3 H 0.00604 0.50421 0.92680 0.0
H4 H 0.00448 0.50575 0.96981 0.0
H5 H 0.00188 0.47187 0.93041 0.0
H6 H 0.99990 0.47376 0.97315 0.0
H7 H 0.97435 0.50652 0.97626 0.0
H8 H 0.95537 0.49663 0.96851 0.0
H9 H 0.02394 0.52785 0.98573 0.0
H10 H 0.04474 0.53365 0.98888 0.0
H11 H 0.02661 0.52471 0.91728 0.0
H12 H 0.04599 0.53351 0.92618 0.0
H13 H 0.98250 0.48777 0.89038 0.0
H14 H 0.97268 0.50449 0.90963 0.0
H15 H 0.03569 0.53610 0.05535 0.0
H16 H 0.97328 0.52188 0.06806 0.0
H17 H 0.97522 0.52209 0.02516 0.0
H18 H 0.99990 0.50402 0.07379 0.0
H19 H 0.00155 0.50248 0.03078 0.0
H20 H 0.00415 0.53636 0.07018 0.0
H21 H 0.00633 0.53447 0.02745 0.0
H22 H 0.03168 0.50171 0.02433 0.0
H23 H 0.05066 0.51160 0.03208 0.0
H24 H 0.98209 0.48038 0.01486 0.0
H25 H 0.96128 0.47458 0.01171 0.0
H26 H 0.97941 0.48352 0.08331 0.0
H27 H 0.96004 0.47472 0.07441 0.0
H28 H 0.02353 0.52045 0.11021 0.0
H29 H 0.03334 0.50374 0.09096 0.0
C30 C 0.02887 0.49356 0.95366 0.0
C31 C 0.00833 0.49782 0.94969 0.0
C32 C 0.99752 0.47988 0.94994 0.0
C33 C 0.96824 0.49461 0.97471 0.0
C34 C 0.03636 0.52318 0.98884 0.0
C35 C 0.03945 0.52192 0.92241 0.0
C36 C 0.97290 0.49113 0.90749 0.0
C37 C 0.97716 0.51467 0.04693 0.0
C38 C 0.99770 0.51041 0.05090 0.0
C39 C 0.00851 0.52835 0.05065 0.0
C40 C 0.03779 0.51362 0.02588 0.0
C41 C 0.96967 0.48505 0.01175 0.0
C42 C 0.96658 0.48631 0.07818 0.0
C43 C 0.03313 0.51710 0.09310 0.0
N44 N 0.04067 0.51086 0.95682 0.0
N45 N 0.97708 0.48288 0.94483 0.0
N46 N 0.96536 0.49737 0.04378 0.0
N47 N 0.02895 0.52535 0.05576 0.0
H48 H 0.53540 0.97181 0.94692 0.0
H49 H 0.52119 0.03407 0.93353 0.0
H50 H 0.52139 0.03212 0.97644 0.0
H51 H 0.50334 0.00708 0.92695 0.0
H52 H 0.50181 0.00549 0.96989 0.0
H53 H 0.53566 0.00338 0.93210 0.0
H54 H 0.53377 0.00117 0.97475 0.0
H55 H 0.50103 0.97533 0.97629 0.0
H56 H 0.51092 0.95648 0.96902 0.0
H57 H 0.47972 0.02465 0.98475 0.0
H58 H 0.47393 0.04539 0.98762 0.0
H59 H 0.48286 0.02737 0.91644 0.0
H60 H 0.47406 0.04663 0.92492 0.0
H61 H 0.51977 0.98375 0.89131 0.0
H62 H 0.50306 0.97369 0.90976 0.0
H63 H 0.47148 0.03629 0.05397 0.0
H64 H 0.48569 0.97403 0.06736 0.0
H65 H 0.48548 0.97597 0.02445 0.0
H66 H 0.50353 0.00102 0.07394 0.0
H67 H 0.50507 0.00261 0.03100 0.0
H68 H 0.47122 0.00472 0.06879 0.0
H69 H 0.47310 0.00692 0.02615 0.0
H70 H 0.50584 0.03277 0.02460 0.0
H71 H 0.49595 0.05162 0.03188 0.0
H72 H 0.52716 0.98345 0.01614 0.0
H73 H 0.53295 0.96271 0.01327 0.0
H74 H 0.52401 0.98073 0.08445 0.0
H75 H 0.53281 0.96146 0.07597 0.0
H76 H 0.48711 0.02434 0.10958 0.0
H77 H 0.50381 0.03441 0.09113 0.0
C78 C 0.51398 0.03008 0.95431 0.0
C79 C 0.50973 0.00946 0.95014 0.0
C80 C 0.52765 0.99890 0.95125 0.0
C81 C 0.51294 0.96938 0.97531 0.0
C82 C 0.48438 0.03715 0.98808 0.0
C83 C 0.48564 0.04025 0.92171 0.0
C84 C 0.51641 0.97409 0.90826 0.0
C85 C 0.49289 0.97802 0.04658 0.0
C86 C 0.49714 0.99863 0.05075 0.0
C87 C 0.47922 0.00920 0.04964 0.0
C88 C 0.49394 0.03871 0.02558 0.0
C89 C 0.52249 0.97095 0.01281 0.0
C90 C 0.52124 0.96784 0.07918 0.0
C91 C 0.49046 0.03400 0.09263 0.0
N92 N 0.49669 0.04164 0.95664 0.0
N93 N 0.52465 0.97840 0.94599 0.0
N94 N 0.51018 0.96646 0.04425 0.0
N95 N 0.48222 0.02969 0.05490 0.0
Cu96 Cu 0.50303 0.50407 0.50037 0.0
H97 H 0.43668 0.48017 0.50862 0.0
H98 H 0.45544 0.45216 0.50324 0.0
H99 H 0.52594 0.43793 0.49502 0.0
H100 H 0.55459 0.45669 0.49887 0.0
C101 C 0.46213 0.49527 0.50374 0.0
C102 C 0.44970 0.47971 0.50599 0.0
C103 C 0.45989 0.46452 0.50359 0.0
C104 C 0.47884 0.47017 0.50159 0.0
C105 C 0.49331 0.45786 0.49696 0.0
C106 C 0.51161 0.46361 0.49713 0.0
C107 C 0.52674 0.45103 0.49657 0.0
C108 C 0.54232 0.46118 0.49872 0.0
C109 C 0.53684 0.47991 0.50070 0.0
C110 C 0.45656 0.51352 0.49949 0.0
C111 C 0.54970 0.49457 0.50125 0.0
N112 N 0.48810 0.52665 0.49814 0.0
N113 N 0.52570 0.51915 0.50232 0.0
N114 N 0.48023 0.48916 0.50189 0.0
N115 N 0.51777 0.48137 0.49913 0.0
C116 C 0.46902 0.52810 0.49560 0.0
C117 C 0.46387 0.54724 0.49301 0.0
C118 C 0.47935 0.55721 0.49589 0.0
C119 C 0.49447 0.54462 0.49854 0.0
C120 C 0.51272 0.55028 0.50378 0.0
C121 C 0.52720 0.53786 0.50423 0.0
C122 C 0.54615 0.54351 0.50544 0.0
C123 C 0.55637 0.52811 0.50377 0.0
C124 C 0.54380 0.51305 0.50145 0.0
H125 H 0.45174 0.55189 0.48990 0.0
H126 H 0.48024 0.57029 0.49617 0.0
H127 H 0.55070 0.55584 0.50705 0.0
H128 H 0.56944 0.52745 0.50410 0.0
C129 C 0.19117 0.57249 0.53909 0.0
C130 C 0.20199 0.57258 0.50872 0.0
C131 C 0.22190 0.57208 0.50761 0.0
C132 C 0.23936 0.57226 0.50706 0.0
C133 C 0.25811 0.57183 0.50782 0.0
C134 C 0.26853 0.57553 0.53873 0.0
C135 C 0.28817 0.57602 0.53598 0.0
C136 C 0.29525 0.57350 0.50275 0.0
C137 C 0.28491 0.57012 0.47374 0.0
C138 C 0.26613 0.56954 0.47683 0.0
C139 C 0.19327 0.57327 0.47312 0.0
C140 C 0.17324 0.57370 0.46928 0.0
C141 C 0.16439 0.57451 0.43533 0.0
C142 C 0.15629 0.57526 0.40728 0.0
C143 C 0.14504 0.57410 0.37474 0.0
C144 C 0.15564 0.57753 0.34326 0.0
C145 C 0.14529 0.57691 0.30709 0.0
C146 C 0.12483 0.57291 0.31006 0.0
C147 C 0.11628 0.57062 0.34400 0.0
C148 C 0.12683 0.57034 0.37532 0.0
C149 C 0.16348 0.57312 0.50214 0.0
C150 C 0.17262 0.57244 0.53820 0.0
C151 C 0.16241 0.57274 0.56924 0.0
C152 C 0.15328 0.57270 0.59662 0.0
C153 C 0.14278 0.57307 0.63120 0.0
C154 C 0.12502 0.56955 0.63143 0.0
C155 C 0.11477 0.57110 0.66313 0.0
C156 C 0.12446 0.57334 0.69652 0.0
C157 C 0.14323 0.57615 0.69473 0.0
C158 C 0.15258 0.57509 0.66459 0.0
H159 H 0.19701 0.57248 0.56201 0.0
H160 H 0.26294 0.57770 0.56114 0.0
H161 H 0.29565 0.57803 0.55657 0.0
H162 H 0.29030 0.56812 0.45100 0.0
H163 H 0.25898 0.56743 0.45576 0.0
H164 H 0.20052 0.57343 0.45214 0.0
H165 H 0.16825 0.57999 0.34466 0.0
H166 H 0.15101 0.57885 0.28468 0.0
H167 H 0.10357 0.56931 0.34514 0.0
H168 H 0.12133 0.56747 0.39749 0.0
H169 H 0.15067 0.57320 0.50110 0.0
H170 H 0.11916 0.56592 0.60959 0.0
H171 H 0.10197 0.57066 0.66235 0.0
H172 H 0.14956 0.57898 0.71648 0.0
H173 H 0.16539 0.57564 0.66502 0.0
C174 C 0.43497 0.19133 0.53596 0.0
C175 C 0.43487 0.20215 0.50559 0.0
C176 C 0.43535 0.22209 0.50449 0.0
C177 C 0.43515 0.23956 0.50394 0.0
C178 C 0.43557 0.25834 0.50471 0.0
C179 C 0.43186 0.26871 0.53544 0.0
C180 C 0.43135 0.28836 0.53267 0.0
C181 C 0.43387 0.29548 0.49956 0.0
C182 C 0.43725 0.28518 0.47071 0.0
C183 C 0.43785 0.26640 0.47383 0.0
C184 C 0.43419 0.19342 0.46995 0.0
C185 C 0.43378 0.17336 0.46609 0.0
C186 C 0.43297 0.16449 0.43211 0.0
C187 C 0.43223 0.15637 0.40403 0.0
C188 C 0.43339 0.14513 0.37153 0.0
C189 C 0.42997 0.15569 0.33989 0.0
C190 C 0.43059 0.14534 0.30375 0.0
C191 C 0.43460 0.12492 0.30692 0.0
C192 C 0.43690 0.11640 0.34097 0.0
C193 C 0.43717 0.12697 0.37230 0.0
C194 C 0.43436 0.16361 0.49898 0.0
C195 C 0.43503 0.17277 0.53508 0.0
C196 C 0.43474 0.16255 0.56610 0.0
C197 C 0.43478 0.15341 0.59348 0.0
C198 C 0.43443 0.14290 0.62804 0.0
C199 C 0.43796 0.12518 0.62845 0.0
C200 C 0.43642 0.11489 0.66008 0.0
C201 C 0.43417 0.12456 0.69336 0.0
C202 C 0.43135 0.14330 0.69143 0.0
C203 C 0.43240 0.15268 0.66134 0.0
H204 H 0.43497 0.19717 0.55888 0.0
H205 H 0.42970 0.26309 0.55775 0.0
H206 H 0.42934 0.29582 0.55316 0.0
H207 H 0.43924 0.29061 0.44806 0.0
H208 H 0.43996 0.25927 0.45286 0.0
H209 H 0.43402 0.20067 0.44897 0.0
H210 H 0.42750 0.16827 0.34118 0.0
H211 H 0.42865 0.15103 0.28125 0.0
H212 H 0.43822 0.10370 0.34217 0.0
H213 H 0.44004 0.12150 0.39461 0.0
H214 H 0.43429 0.15079 0.49794 0.0
H215 H 0.44159 0.11936 0.60679 0.0
H216 H 0.43687 0.10209 0.65932 0.0
H217 H 0.42852 0.14960 0.71305 0.0
H218 H 0.43184 0.16549 0.66174 0.0
C219 C 0.81486 0.43408 0.46146 0.0
C220 C 0.80405 0.43417 0.49184 0.0
C221 C 0.78412 0.43367 0.49294 0.0
C222 C 0.76667 0.43385 0.49349 0.0
C223 C 0.74791 0.43342 0.49272 0.0
C224 C 0.73754 0.43713 0.46198 0.0
C225 C 0.71791 0.43762 0.46476 0.0
C226 C 0.71080 0.43509 0.49787 0.0
C227 C 0.72109 0.43171 0.52672 0.0
C228 C 0.73986 0.43113 0.52360 0.0
C229 C 0.81277 0.43486 0.52747 0.0
C230 C 0.83281 0.43529 0.53134 0.0
C231 C 0.84168 0.43610 0.56532 0.0
C232 C 0.84979 0.43685 0.59340 0.0
C233 C 0.86102 0.43569 0.62589 0.0
C234 C 0.85047 0.43912 0.65754 0.0
C235 C 0.86081 0.43850 0.69368 0.0
C236 C 0.88121 0.43451 0.69051 0.0
C237 C 0.88973 0.43221 0.65646 0.0
C238 C 0.87917 0.43193 0.62512 0.0
C239 C 0.84256 0.43472 0.49845 0.0
C240 C 0.83341 0.43403 0.46235 0.0
C241 C 0.84362 0.43433 0.43133 0.0
C242 C 0.85275 0.43430 0.40394 0.0
C243 C 0.86326 0.43466 0.36938 0.0
C244 C 0.88096 0.43114 0.36898 0.0
C245 C 0.89124 0.43269 0.33735 0.0
C246 C 0.88157 0.43493 0.30406 0.0
C247 C 0.86285 0.43774 0.30599 0.0
C248 C 0.85348 0.43668 0.33609 0.0
H249 H 0.80902 0.43407 0.43855 0.0
H250 H 0.74316 0.43929 0.43968 0.0
H251 H 0.71045 0.43962 0.44427 0.0
H252 H 0.71567 0.42971 0.54937 0.0
H253 H 0.74698 0.42902 0.54457 0.0
H254 H 0.80553 0.43502 0.54846 0.0
H255 H 0.83790 0.44158 0.65625 0.0
H256 H 0.85512 0.44044 0.71618 0.0
H257 H 0.90242 0.43090 0.65525 0.0
H258 H 0.88464 0.42906 0.60282 0.0
H259 H 0.85537 0.43479 0.49949 0.0
H260 H 0.88677 0.42751 0.39064 0.0
H261 H 0.90403 0.43226 0.33811 0.0
H262 H 0.85656 0.44057 0.28438 0.0
H263 H 0.84068 0.43723 0.33568 0.0
C264 C 0.57330 0.81668 0.46494 0.0
C265 C 0.57320 0.80586 0.49531 0.0
C266 C 0.57369 0.78592 0.49643 0.0
C267 C 0.57349 0.76845 0.49697 0.0
C268 C 0.57391 0.74968 0.49621 0.0
C269 C 0.57019 0.73926 0.46530 0.0
C270 C 0.56969 0.71960 0.46805 0.0
C271 C 0.57220 0.71252 0.50128 0.0
C272 C 0.57559 0.72286 0.53029 0.0
C273 C 0.57618 0.74166 0.52720 0.0
C274 C 0.57252 0.81458 0.53091 0.0
C275 C 0.57211 0.83463 0.53476 0.0
C276 C 0.57131 0.84349 0.56870 0.0
C277 C 0.57057 0.85160 0.59675 0.0
C278 C 0.57173 0.86285 0.62930 0.0
C279 C 0.56830 0.85225 0.66078 0.0
C280 C 0.56892 0.86261 0.69695 0.0
C281 C 0.57293 0.88308 0.69398 0.0
C282 C 0.57524 0.89164 0.66004 0.0
C283 C 0.57551 0.88107 0.62871 0.0
C284 C 0.57269 0.84439 0.50190 0.0
C285 C 0.57337 0.83525 0.46583 0.0
C286 C 0.57308 0.84547 0.43480 0.0
C287 C 0.57312 0.85460 0.40742 0.0
C288 C 0.57277 0.86511 0.37284 0.0
C289 C 0.57630 0.88288 0.37261 0.0
C290 C 0.57476 0.89315 0.34091 0.0
C291 C 0.57251 0.88344 0.30751 0.0
C292 C 0.56969 0.86467 0.30930 0.0
C293 C 0.57074 0.85530 0.33945 0.0
H294 H 0.57331 0.81084 0.44202 0.0
H295 H 0.56803 0.74485 0.44290 0.0
H296 H 0.56768 0.71211 0.44746 0.0
H297 H 0.57758 0.71746 0.55303 0.0
H298 H 0.57830 0.74881 0.54827 0.0
H299 H 0.57236 0.80733 0.55189 0.0
H300 H 0.56583 0.83963 0.65937 0.0
H301 H 0.56699 0.85688 0.71936 0.0
H302 H 0.57656 0.90435 0.65890 0.0
H303 H 0.57838 0.88658 0.60654 0.0
H304 H 0.57263 0.85721 0.50294 0.0
H305 H 0.57993 0.88875 0.39444 0.0
H306 H 0.57520 0.90595 0.34169 0.0
H307 H 0.56686 0.85833 0.28755 0.0
H308 H 0.57017 0.84248 0.33902 0.0
C309 C 0.43469 0.52099 0.50120 0.0
C310 C 0.41505 0.52891 0.50156 0.0
C311 C 0.39541 0.53682 0.50187 0.0
C312 C 0.38096 0.52895 0.52820 0.0
C313 C 0.36133 0.53687 0.52853 0.0
C314 C 0.35614 0.55265 0.50247 0.0
C315 C 0.37059 0.56053 0.47614 0.0
C316 C 0.39023 0.55262 0.47584 0.0
C317 C 0.33650 0.56057 0.50279 0.0
C318 C 0.31687 0.56850 0.50307 0.0
H319 H 0.38480 0.51725 0.54746 0.0
H320 H 0.35063 0.53106 0.54805 0.0
H321 H 0.36675 0.57221 0.45686 0.0
H322 H 0.40093 0.55845 0.45635 0.0
C323 C 0.48628 0.43583 0.50034 0.0
C324 C 0.47839 0.41605 0.50026 0.0
C325 C 0.47048 0.39628 0.50021 0.0
C326 C 0.46734 0.38579 0.46358 0.0
C327 C 0.45944 0.36602 0.46354 0.0
C328 C 0.45466 0.35675 0.50012 0.0
C329 C 0.45780 0.36723 0.53675 0.0
C330 C 0.46572 0.38700 0.53680 0.0
C331 C 0.44676 0.33697 0.50007 0.0
C332 C 0.43885 0.31721 0.50007 0.0
H333 H 0.47085 0.39266 0.43649 0.0
H334 H 0.45713 0.35825 0.43642 0.0
H335 H 0.45427 0.36036 0.56384 0.0
H336 H 0.46805 0.39476 0.56392 0.0
C337 C 0.57135 0.48717 0.49957 0.0
C338 C 0.59099 0.47927 0.49920 0.0
C339 C 0.61063 0.47135 0.49887 0.0
C340 C 0.62245 0.47296 0.46415 0.0
C341 C 0.64209 0.46505 0.46382 0.0
C342 C 0.64990 0.45550 0.49819 0.0
C343 C 0.63808 0.45390 0.53291 0.0
C344 C 0.61845 0.46183 0.53326 0.0
C345 C 0.66954 0.44759 0.49785 0.0
C346 C 0.68917 0.43967 0.49755 0.0
H347 H 0.61666 0.48000 0.43869 0.0
H348 H 0.65085 0.46625 0.43813 0.0
H349 H 0.64387 0.44684 0.55836 0.0
H350 H 0.60970 0.46064 0.55896 0.0
C351 C 0.51996 0.57226 0.50035 0.0
C352 C 0.52789 0.59202 0.50037 0.0
C353 C 0.53583 0.61178 0.50044 0.0
C354 C 0.53967 0.62143 0.46380 0.0
C355 C 0.54760 0.64119 0.46386 0.0
C356 C 0.55172 0.65128 0.50057 0.0
C357 C 0.54789 0.64163 0.53721 0.0
C358 C 0.53994 0.62188 0.53715 0.0
C359 C 0.55966 0.67104 0.50063 0.0
C360 C 0.56760 0.69080 0.50073 0.0
H361 H 0.53664 0.61395 0.43662 0.0
H362 H 0.55043 0.64834 0.43673 0.0
H363 H 0.55093 0.64911 0.56438 0.0
H364 H 0.53709 0.61474 0.56427 0.0
C365 C 0.05029 0.52497 0.88318 0.0
C366 C 0.06238 0.53357 0.85331 0.0
C367 C 0.07449 0.54217 0.82341 0.0
C368 C 0.08662 0.55075 0.79360 0.0
C369 C 0.09885 0.55932 0.76386 0.0
C370 C 0.11110 0.56787 0.73419 0.0
C371 C 0.48264 0.05111 0.88235 0.0
C372 C 0.47413 0.06318 0.85211 0.0
C373 C 0.46562 0.07525 0.82184 0.0
C374 C 0.45706 0.08730 0.79165 0.0
C375 C 0.44841 0.09933 0.76146 0.0
C376 C 0.43972 0.11134 0.73133 0.0
C377 C 0.95567 0.48328 0.11732 0.0
C378 C 0.94344 0.47472 0.14701 0.0
C379 C 0.93120 0.46616 0.17674 0.0
C380 C 0.91902 0.45759 0.20649 0.0
C381 C 0.90690 0.44898 0.23637 0.0
C382 C 0.89484 0.44037 0.26628 0.0
C383 C 0.52428 0.95697 0.11846 0.0
C384 C 0.53289 0.94486 0.14853 0.0
C385 C 0.54150 0.93275 0.17863 0.0
C386 C 0.55007 0.92068 0.20877 0.0
C387 C 0.55861 0.90866 0.23908 0.0
C388 C 0.56713 0.89667 0.26944 0.0
C389 C 0.48256 0.05114 0.11883 0.0
C390 C 0.47389 0.06319 0.14907 0.0
C391 C 0.46522 0.07526 0.17933 0.0
C392 C 0.45661 0.08734 0.20960 0.0
C393 C 0.44808 0.09945 0.23995 0.0
C394 C 0.43960 0.11157 0.27031 0.0
C395 C 0.05035 0.52497 0.11974 0.0
C396 C 0.06248 0.53358 0.15053 0.0
C397 C 0.07463 0.54219 0.18133 0.0
C398 C 0.08681 0.55077 0.21205 0.0
C399 C 0.09908 0.55934 0.24271 0.0
C400 C 0.11138 0.56789 0.27330 0.0
C401 C 0.95561 0.48328 0.88094 0.0
C402 C 0.94334 0.47472 0.85032 0.0
C403 C 0.93106 0.46615 0.81967 0.0
C404 C 0.91884 0.45758 0.78901 0.0
C405 C 0.90668 0.44897 0.75822 0.0
C406 C 0.89457 0.44036 0.72740 0.0
C407 C 0.52431 0.95694 0.88206 0.0
C408 C 0.53295 0.94487 0.85182 0.0
C409 C 0.54160 0.93278 0.82155 0.0
C410 C 0.55019 0.92070 0.79129 0.0
C411 C 0.55871 0.90857 0.76094 0.0
C412 C 0.56716 0.89644 0.73058 0.0
