data_{}
_symmetry_space_group_name_H-M    P1
_symmetry_Int_Tables_number       1
_symmetry_cell_setting            triclinic
loop_
_symmetry_equiv_pos_as_xyz
'x, y, z'
_cell_length_a     72.321
_cell_length_b     72.320
_cell_length_c     40.181
_cell_angle_alpha  90.142
_cell_angle_beta   90.143
_cell_angle_gamma  66.189
loop_
_atom_site_label
_atom_site_type_symbol
_atom_site_fract_x
_atom_site_fract_y
_atom_site_fract_z
_atom_type_partial_charge
H0 H 0.98305 0.46827 0.95140 0.0
H1 H 0.04133 0.48037 0.93875 0.0
H2 H 0.03939 0.48024 0.97761 0.0
H3 H 0.00686 0.50141 0.93364 0.0
H4 H 0.00462 0.50316 0.97257 0.0
H5 H 0.01547 0.46623 0.93752 0.0
H6 H 0.01247 0.46841 0.97621 0.0
H7 H 0.97345 0.50569 0.97882 0.0
H8 H 0.95795 0.49591 0.97225 0.0
H9 H 0.01574 0.52627 0.98631 0.0
H10 H 0.03474 0.53146 0.98876 0.0
H11 H 0.01978 0.52270 0.92436 0.0
H12 H 0.03611 0.53126 0.93199 0.0
H13 H 0.98932 0.48473 0.90130 0.0
H14 H 0.97259 0.50357 0.91857 0.0
H15 H 0.02445 0.53463 0.04901 0.0
H16 H 0.96617 0.52253 0.06166 0.0
H17 H 0.96811 0.52266 0.02280 0.0
H18 H 0.00010 0.50149 0.06677 0.0
H19 H 0.00288 0.49974 0.02784 0.0
H20 H 0.99203 0.53666 0.06289 0.0
H21 H 0.99503 0.53449 0.02420 0.0
H22 H 0.03406 0.49721 0.02159 0.0
H23 H 0.04955 0.50699 0.02816 0.0
H24 H 0.99176 0.47663 0.01410 0.0
H25 H 0.97276 0.47144 0.01165 0.0
H26 H 0.98772 0.48020 0.07605 0.0
H27 H 0.97139 0.47164 0.06842 0.0
H28 H 0.01819 0.51816 0.09911 0.0
H29 H 0.03491 0.49932 0.08184 0.0
C30 C 0.03447 0.48847 0.95780 0.0
C31 C 0.01174 0.49427 0.95443 0.0
C32 C 0.00781 0.47524 0.95513 0.0
C33 C 0.97193 0.49298 0.97771 0.0
C34 C 0.03032 0.52047 0.98903 0.0
C35 C 0.03403 0.51894 0.92887 0.0
C36 C 0.97813 0.48894 0.91687 0.0
C37 C 0.97303 0.51443 0.04261 0.0
C38 C 0.99576 0.50863 0.04598 0.0
C39 C 0.99990 0.52766 0.04528 0.0
C40 C 0.03557 0.50991 0.02270 0.0
C41 C 0.97718 0.48243 0.01138 0.0
C42 C 0.97347 0.48396 0.07154 0.0
C43 C 0.02937 0.51396 0.08354 0.0
N44 N 0.03967 0.50675 0.96019 0.0
N45 N 0.98568 0.47967 0.95074 0.0
N46 N 0.96783 0.49615 0.04022 0.0
N47 N 0.02182 0.52323 0.04967 0.0
H48 H 0.50577 0.95655 0.95142 0.0
H49 H 0.53739 0.00101 0.93879 0.0
H50 H 0.53619 0.99990 0.97766 0.0
H51 H 0.50355 0.00538 0.93362 0.0
H52 H 0.50114 0.00609 0.97253 0.0
H53 H 0.52807 0.97175 0.93758 0.0
H54 H 0.52493 0.97250 0.97625 0.0
H55 H 0.47939 0.99209 0.97876 0.0
H56 H 0.47450 0.97314 0.97220 0.0
H57 H 0.49600 0.03720 0.98624 0.0
H58 H 0.50564 0.05305 0.98870 0.0
H59 H 0.50056 0.03548 0.92431 0.0
H60 H 0.50665 0.05356 0.93193 0.0
H61 H 0.50102 0.97782 0.90129 0.0
H62 H 0.47996 0.98933 0.91851 0.0
H63 H 0.49720 0.05097 0.04893 0.0
H64 H 0.46558 0.00651 0.06156 0.0
H65 H 0.46678 0.00769 0.02269 0.0
H66 H 0.49943 0.00213 0.06674 0.0
H67 H 0.50184 0.00143 0.02782 0.0
H68 H 0.47491 0.03577 0.06278 0.0
H69 H 0.47804 0.03502 0.02410 0.0
H70 H 0.52359 0.01542 0.02160 0.0
H71 H 0.52847 0.03438 0.02816 0.0
H72 H 0.50697 0.97032 0.01411 0.0
H73 H 0.49733 0.95447 0.01166 0.0
H74 H 0.50241 0.97203 0.07605 0.0
H75 H 0.49632 0.95395 0.06843 0.0
H76 H 0.50195 0.02969 0.09906 0.0
H77 H 0.52301 0.01818 0.08184 0.0
C78 C 0.52855 0.00614 0.95783 0.0
C79 C 0.51057 0.00010 0.95442 0.0
C80 C 0.51822 0.97742 0.95516 0.0
C81 C 0.48522 0.97746 0.97767 0.0
C82 C 0.50865 0.03872 0.98898 0.0
C83 C 0.51190 0.03904 0.92883 0.0
C84 C 0.49144 0.97639 0.91684 0.0
C85 C 0.47442 0.00138 0.04253 0.0
C86 C 0.49240 0.00727 0.04593 0.0
C87 C 0.48476 0.03009 0.04519 0.0
C88 C 0.51775 0.03005 0.02268 0.0
C89 C 0.49432 0.96880 0.01137 0.0
C90 C 0.49107 0.96847 0.07152 0.0
C91 C 0.51153 0.03113 0.08351 0.0
N92 N 0.52213 0.02881 0.96018 0.0
N93 N 0.50136 0.97036 0.95074 0.0
N94 N 0.48084 0.97870 0.04017 0.0
N95 N 0.50161 0.03716 0.04961 0.0
H96 H 0.47455 0.57387 0.45609 0.0
H97 H 0.48340 0.53852 0.45576 0.0
H98 H 0.51015 0.47041 0.45093 0.0
H99 H 0.51818 0.43567 0.45068 0.0
H100 H 0.51673 0.43589 0.55023 0.0
H101 H 0.50810 0.47088 0.54973 0.0
H102 H 0.53302 0.50832 0.45535 0.0
H103 H 0.56772 0.49912 0.45323 0.0
H104 H 0.57396 0.47469 0.54417 0.0
H105 H 0.53861 0.48354 0.54458 0.0
H106 H 0.47051 0.51029 0.54952 0.0
H107 H 0.43578 0.51832 0.54984 0.0
H108 H 0.43574 0.51661 0.45030 0.0
H109 H 0.47074 0.50799 0.45073 0.0
Pd110 Pd 0.50301 0.50303 0.50019 0.0
C111 C 0.48678 0.54471 0.47432 0.0
C112 C 0.48148 0.56579 0.47444 0.0
C113 C 0.48670 0.57434 0.50172 0.0
C114 C 0.49610 0.56207 0.52766 0.0
C115 C 0.50141 0.54144 0.52677 0.0
C116 C 0.51056 0.46353 0.52942 0.0
C117 C 0.51539 0.44276 0.52967 0.0
C118 C 0.51826 0.43211 0.49977 0.0
C119 C 0.51623 0.44264 0.47132 0.0
C120 C 0.51175 0.46330 0.47130 0.0
C121 C 0.54475 0.48687 0.52599 0.0
C122 C 0.56583 0.48157 0.52583 0.0
C123 C 0.57431 0.48673 0.49851 0.0
C124 C 0.56197 0.49606 0.47258 0.0
C125 C 0.54135 0.50136 0.47351 0.0
C126 C 0.46343 0.51050 0.47105 0.0
C127 C 0.44266 0.51533 0.47084 0.0
C128 C 0.43210 0.51827 0.50077 0.0
C129 C 0.44270 0.51632 0.52919 0.0
C130 C 0.46336 0.51184 0.52917 0.0
N131 N 0.50930 0.47320 0.50031 0.0
N132 N 0.49666 0.53328 0.50013 0.0
N133 N 0.47318 0.50932 0.50014 0.0
N134 N 0.53326 0.49669 0.50018 0.0
H135 H 0.50841 0.53316 0.54493 0.0
H136 H 0.49922 0.56786 0.54698 0.0
C137 C 0.10328 0.57600 0.27969 0.0
C138 C 0.11484 0.55695 0.30055 0.0
C139 C 0.12743 0.55821 0.33074 0.0
C140 C 0.13913 0.53927 0.35180 0.0
C141 C 0.15173 0.54069 0.38191 0.0
C142 C 0.15262 0.56102 0.39083 0.0
C143 C 0.14087 0.57995 0.36985 0.0
C144 C 0.12829 0.57854 0.33979 0.0
C145 C 0.17264 0.54362 0.44115 0.0
C146 C 0.18175 0.54977 0.47153 0.0
C147 C 0.20362 0.54806 0.47030 0.0
C148 C 0.21130 0.55785 0.49805 0.0
C149 C 0.19807 0.56709 0.52880 0.0
C150 C 0.17687 0.56702 0.53135 0.0
C151 C 0.16869 0.55838 0.50264 0.0
C152 C 0.14687 0.55982 0.50388 0.0
C153 C 0.21713 0.53812 0.44010 0.0
C154 C 0.20582 0.57701 0.55633 0.0
C155 C 0.23209 0.55871 0.49499 0.0
C156 C 0.24741 0.58317 0.48682 0.0
C157 C 0.26756 0.56488 0.49243 0.0
C158 C 0.28741 0.56792 0.49432 0.0
C159 C 0.28707 0.58924 0.49060 0.0
C160 C 0.26691 0.60751 0.48471 0.0
C161 C 0.24706 0.60447 0.48283 0.0
C162 C 0.30693 0.59223 0.49283 0.0
C163 C 0.32701 0.57389 0.49887 0.0
C164 C 0.16334 0.57661 0.56156 0.0
C165 C 0.15535 0.56781 0.61701 0.0
C166 C 0.13996 0.58993 0.61928 0.0
C167 C 0.12373 0.59632 0.64668 0.0
C168 C 0.12293 0.58055 0.67167 0.0
C169 C 0.13837 0.55844 0.66941 0.0
C170 C 0.15460 0.55206 0.64205 0.0
C171 C 0.10663 0.58679 0.69890 0.0
C172 C 0.10586 0.57086 0.72355 0.0
O173 O 0.16471 0.56261 0.42044 0.0
O174 O 0.17059 0.56132 0.58925 0.0
O175 O 0.22793 0.58027 0.48607 0.0
H176 H 0.10407 0.59096 0.28668 0.0
H177 H 0.11409 0.54196 0.29365 0.0
H178 H 0.13848 0.52423 0.34511 0.0
H179 H 0.16039 0.52671 0.39757 0.0
H180 H 0.14149 0.59500 0.37661 0.0
H181 H 0.11962 0.59253 0.32421 0.0
H182 H 0.18465 0.53065 0.42700 0.0
H183 H 0.15976 0.53936 0.44918 0.0
H184 H 0.13851 0.57003 0.52542 0.0
H185 H 0.14705 0.54412 0.50758 0.0
H186 H 0.13890 0.56645 0.47947 0.0
H187 H 0.20725 0.53804 0.41798 0.0
H188 H 0.22754 0.52189 0.44666 0.0
H189 H 0.22666 0.54683 0.43338 0.0
H190 H 0.19357 0.58389 0.57596 0.0
H191 H 0.20975 0.58937 0.54486 0.0
H192 H 0.21991 0.56517 0.56835 0.0
H193 H 0.24039 0.55461 0.51984 0.0
H194 H 0.24142 0.54800 0.47466 0.0
H195 H 0.26777 0.54912 0.49533 0.0
H196 H 0.30235 0.55440 0.49855 0.0
H197 H 0.26667 0.62328 0.48183 0.0
H198 H 0.23210 0.61798 0.47861 0.0
H199 H 0.30677 0.60798 0.49006 0.0
H200 H 0.32711 0.55816 0.50161 0.0
H201 H 0.16451 0.59126 0.56935 0.0
H202 H 0.14700 0.57968 0.55508 0.0
H203 H 0.14049 0.60151 0.60057 0.0
H204 H 0.11228 0.61268 0.64841 0.0
H205 H 0.13773 0.54680 0.68793 0.0
H206 H 0.16596 0.53569 0.64019 0.0
H207 H 0.09515 0.60314 0.70078 0.0
H208 H 0.11736 0.55453 0.72157 0.0
C209 C 0.57449 0.10392 0.27966 0.0
C210 C 0.59357 0.09999 0.30062 0.0
C211 C 0.59238 0.11357 0.33080 0.0
C212 C 0.61135 0.10988 0.35196 0.0
C213 C 0.61001 0.12360 0.38206 0.0
C214 C 0.58973 0.14098 0.39088 0.0
C215 C 0.57078 0.14462 0.36980 0.0
C216 C 0.57211 0.13093 0.33974 0.0
C217 C 0.60721 0.14683 0.44130 0.0
C218 C 0.60113 0.16091 0.47164 0.0
C219 C 0.60296 0.18134 0.47042 0.0
C220 C 0.59324 0.19695 0.49812 0.0
C221 C 0.58395 0.19125 0.52882 0.0
C222 C 0.58389 0.17004 0.53137 0.0
C223 C 0.59246 0.15486 0.50270 0.0
C224 C 0.59089 0.13427 0.50393 0.0
C225 C 0.61296 0.18675 0.44027 0.0
C226 C 0.57409 0.20703 0.55630 0.0
C227 C 0.59251 0.21839 0.49506 0.0
C228 C 0.56820 0.25351 0.48676 0.0
C229 C 0.58656 0.25877 0.49246 0.0
C230 C 0.58365 0.28104 0.49433 0.0
C231 C 0.56238 0.29800 0.49050 0.0
C232 C 0.54403 0.29272 0.48451 0.0
C233 C 0.54695 0.27045 0.48265 0.0
C234 C 0.55952 0.32024 0.49272 0.0
C235 C 0.57793 0.32539 0.49886 0.0
C236 C 0.57425 0.16432 0.56153 0.0
C237 C 0.58298 0.14921 0.61703 0.0
C238 C 0.56082 0.15180 0.61918 0.0
C239 C 0.55435 0.14080 0.64655 0.0
C240 C 0.57008 0.12720 0.67161 0.0
C241 C 0.59222 0.12467 0.66947 0.0
C242 C 0.59868 0.13568 0.64215 0.0
C243 C 0.56374 0.11601 0.69881 0.0
C244 C 0.57963 0.10231 0.72355 0.0
O245 O 0.58822 0.15433 0.42048 0.0
O246 O 0.58954 0.15914 0.58930 0.0
O247 O 0.57097 0.23173 0.48602 0.0
H248 H 0.55958 0.11684 0.28656 0.0
H249 H 0.60851 0.08708 0.29380 0.0
H250 H 0.62635 0.09702 0.34535 0.0
H251 H 0.62401 0.12089 0.39780 0.0
H252 H 0.55576 0.15745 0.37648 0.0
H253 H 0.55810 0.13363 0.32409 0.0
H254 H 0.62022 0.14829 0.42721 0.0
H255 H 0.61138 0.13052 0.44934 0.0
H256 H 0.58065 0.13422 0.52542 0.0
H257 H 0.60655 0.12171 0.50772 0.0
H258 H 0.58423 0.13170 0.47949 0.0
H259 H 0.61298 0.17683 0.41815 0.0
H260 H 0.62922 0.18396 0.44692 0.0
H261 H 0.60432 0.20333 0.43351 0.0
H262 H 0.56716 0.20040 0.57588 0.0
H263 H 0.56179 0.22097 0.54476 0.0
H264 H 0.58600 0.21147 0.56837 0.0
H265 H 0.59665 0.22334 0.51993 0.0
H266 H 0.60325 0.21900 0.47478 0.0
H267 H 0.60229 0.24619 0.49544 0.0
H268 H 0.59722 0.28498 0.49864 0.0
H269 H 0.52830 0.30528 0.48155 0.0
H270 H 0.53338 0.26649 0.47836 0.0
H271 H 0.54381 0.33287 0.48987 0.0
H272 H 0.59362 0.31273 0.50168 0.0
H273 H 0.55963 0.17738 0.56924 0.0
H274 H 0.57108 0.15051 0.55503 0.0
H275 H 0.54926 0.16174 0.60040 0.0
H276 H 0.53796 0.14265 0.64818 0.0
H277 H 0.60383 0.11458 0.68805 0.0
H278 H 0.61508 0.13373 0.64038 0.0
H279 H 0.54737 0.11783 0.70061 0.0
H280 H 0.59599 0.10054 0.72165 0.0
C281 C 0.90324 0.42870 0.72072 0.0
C282 C 0.90706 0.40964 0.69976 0.0
C283 C 0.89345 0.41091 0.66958 0.0
C284 C 0.89704 0.39197 0.64842 0.0
C285 C 0.88330 0.39338 0.61832 0.0
C286 C 0.86600 0.41371 0.60950 0.0
C287 C 0.86246 0.43264 0.63058 0.0
C288 C 0.87618 0.43123 0.66064 0.0
C289 C 0.86003 0.39631 0.55909 0.0
C290 C 0.84595 0.40246 0.52874 0.0
C291 C 0.82546 0.40075 0.52996 0.0
C292 C 0.80987 0.41055 0.50226 0.0
C293 C 0.81564 0.41978 0.47156 0.0
C294 C 0.83691 0.41971 0.46901 0.0
C295 C 0.85206 0.41107 0.49768 0.0
C296 C 0.87272 0.41251 0.49645 0.0
C297 C 0.81998 0.39081 0.56011 0.0
C298 C 0.79988 0.42971 0.44409 0.0
C299 C 0.78839 0.41140 0.50532 0.0
C300 C 0.75333 0.43586 0.51362 0.0
C301 C 0.74794 0.41757 0.50792 0.0
C302 C 0.72564 0.42061 0.50605 0.0
C303 C 0.70877 0.44193 0.50988 0.0
C304 C 0.71417 0.46020 0.51587 0.0
C305 C 0.73648 0.45716 0.51773 0.0
C306 C 0.68649 0.44492 0.50766 0.0
C307 C 0.68122 0.42658 0.50153 0.0
C308 C 0.84269 0.42930 0.43885 0.0
C309 C 0.85779 0.42050 0.38336 0.0
C310 C 0.85532 0.44262 0.38120 0.0
C311 C 0.86639 0.44901 0.35383 0.0
C312 C 0.87993 0.43324 0.32877 0.0
C313 C 0.88233 0.41114 0.33091 0.0
C314 C 0.87125 0.40476 0.35823 0.0
C315 C 0.89118 0.43949 0.30157 0.0
C316 C 0.90481 0.42356 0.27683 0.0
O317 O 0.85263 0.41530 0.57990 0.0
O318 O 0.84779 0.41401 0.41109 0.0
O319 O 0.77514 0.43297 0.51436 0.0
H320 H 0.89037 0.44365 0.71382 0.0
H321 H 0.91991 0.39466 0.70659 0.0
H322 H 0.90984 0.37692 0.65503 0.0
H323 H 0.88593 0.37940 0.60258 0.0
H324 H 0.84969 0.44770 0.62390 0.0
H325 H 0.87355 0.44523 0.67629 0.0
H326 H 0.85848 0.38335 0.57317 0.0
H327 H 0.87635 0.39206 0.55104 0.0
H328 H 0.87283 0.42273 0.47496 0.0
H329 H 0.88521 0.39682 0.49266 0.0
H330 H 0.87533 0.41915 0.52089 0.0
H331 H 0.82992 0.39074 0.58223 0.0
H332 H 0.82268 0.37458 0.55346 0.0
H333 H 0.80341 0.39953 0.56687 0.0
H334 H 0.80657 0.43659 0.42450 0.0
H335 H 0.78598 0.44207 0.45562 0.0
H336 H 0.79536 0.41786 0.43201 0.0
H337 H 0.78340 0.40731 0.48045 0.0
H338 H 0.78771 0.40070 0.52560 0.0
H339 H 0.76046 0.40181 0.50494 0.0
H340 H 0.72161 0.40710 0.50175 0.0
H341 H 0.70167 0.47598 0.51883 0.0
H342 H 0.74052 0.47068 0.52202 0.0
H343 H 0.67393 0.46067 0.51051 0.0
H344 H 0.69381 0.41086 0.49870 0.0
H345 H 0.82968 0.44396 0.43114 0.0
H346 H 0.85655 0.43237 0.44535 0.0
H347 H 0.84543 0.45421 0.39998 0.0
H348 H 0.86463 0.46537 0.35220 0.0
H349 H 0.89238 0.39949 0.31233 0.0
H350 H 0.87311 0.38838 0.36001 0.0
H351 H 0.88946 0.45584 0.29977 0.0
H352 H 0.90650 0.40723 0.27873 0.0
C353 C 0.42713 0.90390 0.72069 0.0
C354 C 0.44620 0.89243 0.69983 0.0
C355 C 0.44502 0.87980 0.66964 0.0
C356 C 0.46398 0.86818 0.64859 0.0
C357 C 0.46264 0.85554 0.61848 0.0
C358 C 0.44237 0.85454 0.60956 0.0
C359 C 0.42341 0.86620 0.63053 0.0
C360 C 0.42475 0.87882 0.66059 0.0
C361 C 0.45985 0.83457 0.55923 0.0
C362 C 0.45376 0.82540 0.52885 0.0
C363 C 0.45560 0.80349 0.53008 0.0
C364 C 0.44587 0.79573 0.50233 0.0
C365 C 0.43658 0.80893 0.47159 0.0
C366 C 0.43653 0.83019 0.46903 0.0
C367 C 0.44510 0.83844 0.49774 0.0
C368 C 0.44353 0.86031 0.49651 0.0
C369 C 0.46560 0.79001 0.56029 0.0
C370 C 0.42673 0.80111 0.44405 0.0
C371 C 0.44514 0.77488 0.50539 0.0
C372 C 0.42084 0.75938 0.51356 0.0
C373 C 0.43920 0.73930 0.50796 0.0
C374 C 0.43629 0.71938 0.50607 0.0
C375 C 0.41502 0.71960 0.50979 0.0
C376 C 0.39667 0.73969 0.51568 0.0
C377 C 0.39959 0.75961 0.51756 0.0
C378 C 0.41215 0.69967 0.50756 0.0
C379 C 0.43056 0.67965 0.50152 0.0
C380 C 0.42688 0.84369 0.43882 0.0
C381 C 0.43561 0.85176 0.38337 0.0
C382 C 0.41345 0.86706 0.38110 0.0
C383 C 0.40698 0.88328 0.35370 0.0
C384 C 0.42271 0.88418 0.32872 0.0
C385 C 0.44485 0.86884 0.33098 0.0
C386 C 0.45131 0.85261 0.35833 0.0
C387 C 0.41638 0.90048 0.30148 0.0
C388 C 0.43227 0.90135 0.27683 0.0
O389 O 0.44086 0.84241 0.57995 0.0
O390 O 0.44218 0.83652 0.41114 0.0
O391 O 0.42361 0.77893 0.51431 0.0
H392 H 0.41221 0.90302 0.71371 0.0
H393 H 0.46115 0.89327 0.70674 0.0
H394 H 0.47899 0.86892 0.65528 0.0
H395 H 0.47664 0.84695 0.60282 0.0
H396 H 0.40840 0.86549 0.62377 0.0
H397 H 0.41073 0.88743 0.67618 0.0
H398 H 0.47285 0.82260 0.57338 0.0
H399 H 0.46401 0.84751 0.55120 0.0
H400 H 0.43329 0.86862 0.47496 0.0
H401 H 0.45919 0.86022 0.49280 0.0
H402 H 0.43686 0.86825 0.52091 0.0
H403 H 0.46561 0.79991 0.58241 0.0
H404 H 0.48185 0.77967 0.55372 0.0
H405 H 0.45696 0.78040 0.56700 0.0
H406 H 0.41979 0.81335 0.42443 0.0
H407 H 0.41442 0.79710 0.45553 0.0
H408 H 0.43863 0.78706 0.43204 0.0
H409 H 0.44928 0.76659 0.48054 0.0
H410 H 0.45588 0.76560 0.52573 0.0
H411 H 0.45493 0.73918 0.50506 0.0
H412 H 0.44986 0.70448 0.50184 0.0
H413 H 0.38093 0.73984 0.51856 0.0
H414 H 0.38601 0.77453 0.52177 0.0
H415 H 0.39644 0.69973 0.51032 0.0
H416 H 0.44625 0.67964 0.49877 0.0
H417 H 0.41227 0.84243 0.43103 0.0
H418 H 0.42372 0.86006 0.44530 0.0
H419 H 0.40190 0.86645 0.39981 0.0
H420 H 0.39059 0.89466 0.35197 0.0
H421 H 0.45646 0.86955 0.31245 0.0
H422 H 0.46772 0.84131 0.36019 0.0
H423 H 0.40000 0.91189 0.29960 0.0
H424 H 0.44863 0.88992 0.27881 0.0
C425 C 0.39814 0.55613 0.50126 0.0
C426 C 0.40332 0.53329 0.49979 0.0
C427 C 0.38627 0.52570 0.49859 0.0
C428 C 0.36402 0.54095 0.49885 0.0
C429 C 0.35884 0.56379 0.50032 0.0
C430 C 0.37589 0.57138 0.50152 0.0
H431 H 0.41076 0.56175 0.50216 0.0
H432 H 0.39010 0.50879 0.49750 0.0
H433 H 0.35140 0.53533 0.49795 0.0
H434 H 0.37205 0.58828 0.50261 0.0
C435 C 0.55614 0.39816 0.50071 0.0
C436 C 0.53329 0.40334 0.50087 0.0
C437 C 0.52569 0.38628 0.50090 0.0
C438 C 0.54095 0.36404 0.50077 0.0
C439 C 0.56380 0.35886 0.50061 0.0
C440 C 0.57139 0.37592 0.50058 0.0
H441 H 0.56176 0.41079 0.50069 0.0
H442 H 0.50878 0.39011 0.50102 0.0
H443 H 0.53532 0.35140 0.50079 0.0
H444 H 0.58831 0.37208 0.50046 0.0
C445 C 0.62051 0.47917 0.49980 0.0
C446 C 0.60333 0.47174 0.49951 0.0
C447 C 0.60833 0.44893 0.49935 0.0
C448 C 0.63052 0.43354 0.49949 0.0
C449 C 0.64770 0.44096 0.49977 0.0
C450 C 0.64270 0.46378 0.49993 0.0
H451 H 0.61681 0.49606 0.49992 0.0
H452 H 0.59561 0.44343 0.49914 0.0
H453 H 0.63422 0.41665 0.49937 0.0
H454 H 0.65542 0.46928 0.50015 0.0
C455 C 0.47914 0.62055 0.50066 0.0
C456 C 0.47171 0.60336 0.50059 0.0
C457 C 0.44890 0.60836 0.50026 0.0
C458 C 0.43350 0.63055 0.50000 0.0
C459 C 0.44093 0.64774 0.50007 0.0
C460 C 0.46374 0.64274 0.50040 0.0
H461 H 0.49602 0.61684 0.50091 0.0
H462 H 0.44340 0.59564 0.50020 0.0
H463 H 0.41662 0.63425 0.49975 0.0
H464 H 0.46924 0.65546 0.50046 0.0
C465 C 0.04409 0.52223 0.89319 0.0
C466 C 0.05307 0.53155 0.86669 0.0
C467 C 0.06204 0.54089 0.84017 0.0
C468 C 0.07096 0.55024 0.81363 0.0
C469 C 0.07979 0.55964 0.78698 0.0
C470 C 0.08856 0.56905 0.76031 0.0
C471 C 0.52226 0.04410 0.89314 0.0
C472 C 0.53155 0.05307 0.86659 0.0
C473 C 0.54085 0.06205 0.84001 0.0
C474 C 0.55019 0.07096 0.81345 0.0
C475 C 0.55961 0.07979 0.78684 0.0
C476 C 0.56907 0.08856 0.76024 0.0
C477 C 0.96336 0.48066 0.10725 0.0
C478 C 0.95435 0.47135 0.13372 0.0
C479 C 0.94534 0.46204 0.16021 0.0
C480 C 0.93638 0.45272 0.18673 0.0
C481 C 0.92749 0.44337 0.21337 0.0
C482 C 0.91866 0.43402 0.24005 0.0
C483 C 0.48068 0.96338 0.10722 0.0
C484 C 0.47134 0.95439 0.13367 0.0
C485 C 0.46199 0.94540 0.16014 0.0
C486 C 0.45266 0.93645 0.18666 0.0
C487 C 0.44332 0.92756 0.21331 0.0
C488 C 0.43400 0.91871 0.24001 0.0
C489 C 0.52230 0.04396 0.10723 0.0
C490 C 0.53175 0.05283 0.13385 0.0
C491 C 0.54121 0.06170 0.16051 0.0
C492 C 0.55060 0.07059 0.18717 0.0
C493 C 0.55992 0.07954 0.21394 0.0
C494 C 0.56917 0.08851 0.24073 0.0
C495 C 0.04396 0.52225 0.10725 0.0
C496 C 0.05284 0.53170 0.13386 0.0
C497 C 0.06174 0.54115 0.16050 0.0
C498 C 0.07063 0.55054 0.18716 0.0
C499 C 0.07957 0.55986 0.21394 0.0
C500 C 0.08851 0.56912 0.24075 0.0
C501 C 0.96343 0.48072 0.89311 0.0
C502 C 0.95439 0.47144 0.86648 0.0
C503 C 0.94534 0.46215 0.83983 0.0
C504 C 0.93636 0.45283 0.81317 0.0
C505 C 0.92747 0.44345 0.78643 0.0
C506 C 0.91863 0.43405 0.75968 0.0
C507 C 0.48075 0.96348 0.89301 0.0
C508 C 0.47149 0.95450 0.86624 0.0
C509 C 0.46222 0.94553 0.83945 0.0
C510 C 0.45291 0.93657 0.81276 0.0
C511 C 0.44350 0.92763 0.78612 0.0
C512 C 0.43406 0.91871 0.75957 0.0
