data_{}
_symmetry_space_group_name_H-M    P1
_symmetry_Int_Tables_number       1
_symmetry_cell_setting            triclinic
loop_
_symmetry_equiv_pos_as_xyz
'x, y, z'
_cell_length_a     56.689
_cell_length_b     53.225
_cell_length_c     94.502
_cell_angle_alpha  88.899
_cell_angle_beta   88.439
_cell_angle_gamma  72.876
loop_
_atom_site_label
_atom_site_type_symbol
_atom_site_fract_x
_atom_site_fract_y
_atom_site_fract_z
_atom_type_partial_charge
C0 C 0.05975 0.01270 0.54266 0.0
C1 C 0.08396 0.00170 0.55071 0.0
C2 C 0.08415 0.00559 0.56680 0.0
C3 C 0.10824 0.99477 0.57501 0.0
C4 C 0.10825 0.99883 0.59110 0.0
C5 C 0.08419 0.01373 0.59894 0.0
C6 C 0.06012 0.02445 0.59075 0.0
C7 C 0.06011 0.02040 0.57468 0.0
C8 C 0.10793 0.00243 0.62137 0.0
C9 C 0.10211 0.00637 0.63726 0.0
C10 C 0.10504 0.03083 0.64453 0.0
C11 C 0.09468 0.03726 0.65967 0.0
C12 C 0.08421 0.01771 0.66809 0.0
C13 C 0.08349 0.99198 0.66119 0.0
C14 C 0.09242 0.98634 0.64575 0.0
C15 C 0.08980 0.96171 0.63845 0.0
C16 C 0.11639 0.04989 0.63627 0.0
C17 C 0.07368 0.02440 0.68320 0.0
C18 C 0.09441 0.06337 0.66639 0.0
C19 C 0.06535 0.10526 0.67408 0.0
C20 C 0.08841 0.11089 0.67981 0.0
C21 C 0.08567 0.13583 0.68846 0.0
C22 C 0.05988 0.15509 0.69137 0.0
C23 C 0.03683 0.14956 0.68553 0.0
C24 C 0.03957 0.12462 0.67687 0.0
C25 C 0.05722 0.17987 0.70015 0.0
C26 C 0.08036 0.18520 0.70600 0.0
C27 C 0.07257 0.97260 0.66937 0.0
C28 C 0.08497 0.93405 0.68514 0.0
C29 C 0.05781 0.93415 0.68487 0.0
C30 C 0.05051 0.91000 0.69036 0.0
C31 C 0.07040 0.88580 0.69605 0.0
C32 C 0.09755 0.88577 0.69634 0.0
C33 C 0.10484 0.90992 0.69088 0.0
C34 C 0.06326 0.86151 0.70142 0.0
C35 C 0.08334 0.83735 0.70697 0.0
O36 O 0.08396 0.01754 0.61470 0.0
O37 O 0.09234 0.95712 0.67914 0.0
O38 O 0.06796 0.08043 0.66601 0.0
H39 H 0.04208 0.02365 0.54863 0.0
H40 H 0.10167 0.99074 0.54478 0.0
H41 H 0.12604 0.98379 0.56917 0.0
H42 H 0.12604 0.99082 0.59721 0.0
H43 H 0.04231 0.03538 0.59660 0.0
H44 H 0.04231 0.02837 0.56860 0.0
H45 H 0.12348 0.01088 0.61789 0.0
H46 H 0.11281 0.98066 0.61871 0.0
H47 H 0.07800 0.95227 0.64546 0.0
H48 H 0.10882 0.94706 0.63664 0.0
H49 H 0.08053 0.96767 0.62784 0.0
H50 H 0.11520 0.04700 0.62441 0.0
H51 H 0.13661 0.04556 0.63918 0.0
H52 H 0.10606 0.07105 0.63910 0.0
H53 H 0.06565 0.00834 0.68737 0.0
H54 H 0.05854 0.04402 0.68295 0.0
H55 H 0.08899 0.02596 0.69040 0.0
H56 H 0.10066 0.05978 0.67781 0.0
H57 H 0.10689 0.07303 0.66008 0.0
H58 H 0.10748 0.09653 0.67770 0.0
H59 H 0.10272 0.14000 0.69275 0.0
H60 H 0.01774 0.16389 0.68764 0.0
H61 H 0.02252 0.12041 0.67259 0.0
H62 H 0.03817 0.19422 0.70232 0.0
H63 H 0.09937 0.17081 0.70380 0.0
H64 H 0.05530 0.98342 0.67572 0.0
H65 H 0.06792 0.95875 0.66157 0.0
H66 H 0.04317 0.95201 0.68054 0.0
H67 H 0.03041 0.90998 0.69016 0.0
H68 H 0.11224 0.86782 0.70056 0.0
H69 H 0.12494 0.90988 0.69100 0.0
H70 H 0.04319 0.86138 0.70126 0.0
H71 H 0.10338 0.83755 0.70710 0.0
C72 C 0.01698 0.01833 0.48206 0.0
C73 C 0.03928 0.01486 0.47182 0.0
C74 C 0.03613 0.01195 0.45586 0.0
C75 C 0.05827 0.00838 0.44548 0.0
C76 C 0.05493 0.00541 0.42953 0.0
C77 C 0.02948 0.00599 0.42402 0.0
C78 C 0.00735 0.00965 0.43439 0.0
C79 C 0.01068 0.01260 0.45031 0.0
C80 C 0.04832 0.00410 0.39958 0.0
C81 C 0.03925 0.00486 0.38439 0.0
C82 C 0.04064 0.97908 0.37689 0.0
C83 C 0.02723 0.98012 0.36287 0.0
C84 C 0.01512 0.00675 0.35555 0.0
C85 C 0.01585 0.03244 0.36247 0.0
C86 C 0.02789 0.03148 0.37693 0.0
C87 C 0.02682 0.05723 0.38443 0.0
C88 C 0.05360 0.95241 0.38398 0.0
C89 C 0.00155 0.00762 0.34157 0.0
C90 C 0.02557 0.95464 0.35621 0.0
C91 C 0.99519 0.93132 0.35129 0.0
C92 C 0.01683 0.91177 0.34343 0.0
C93 C 0.01232 0.88913 0.33509 0.0
C94 C 0.98617 0.88607 0.33463 0.0
C95 C 0.96456 0.90551 0.34259 0.0
C96 C 0.96908 0.92816 0.35093 0.0
C97 C 0.98171 0.86355 0.32616 0.0
C98 C 0.00340 0.84426 0.31817 0.0
C99 C 0.00333 0.05917 0.35543 0.0
C100 C 0.01233 0.09109 0.33869 0.0
C101 C 0.98550 0.10784 0.34151 0.0
C102 C 0.97713 0.13689 0.33680 0.0
C103 C 0.99565 0.14913 0.32931 0.0
C104 C 0.02246 0.13233 0.32647 0.0
C105 C 0.03082 0.10328 0.33116 0.0
C106 C 0.98746 0.17822 0.32470 0.0
C107 C 0.00619 0.19030 0.31734 0.0
O108 O 0.02597 0.00341 0.40843 0.0
O109 O 0.02088 0.06304 0.34391 0.0
O110 O 0.99990 0.95397 0.35906 0.0
H111 H 0.99824 0.01876 0.47780 0.0
H112 H 0.05806 0.01441 0.47603 0.0
H113 H 0.07711 0.00791 0.44958 0.0
H114 H 0.07128 0.00280 0.42182 0.0
H115 H 0.98850 0.01018 0.43027 0.0
H116 H 0.99432 0.01527 0.45800 0.0
H117 H 0.06444 0.98576 0.40156 0.0
H118 H 0.05371 0.02265 0.40178 0.0
H119 H 0.01369 0.07448 0.37862 0.0
H120 H 0.04604 0.05995 0.38445 0.0
H121 H 0.01986 0.05630 0.39581 0.0
H122 H 0.05488 0.95522 0.39583 0.0
H123 H 0.07301 0.94439 0.37919 0.0
H124 H 0.04277 0.93786 0.38212 0.0
H125 H 0.99274 0.02895 0.33821 0.0
H126 H 0.98661 0.99739 0.34322 0.0
H127 H 0.01522 0.99705 0.33299 0.0
H128 H 0.02938 0.95513 0.34432 0.0
H129 H 0.03924 0.93680 0.36127 0.0
H130 H 0.03615 0.91414 0.34374 0.0
H131 H 0.02831 0.87466 0.32923 0.0
H132 H 0.94523 0.90318 0.34229 0.0
H133 H 0.95309 0.94265 0.35679 0.0
H134 H 0.96240 0.86117 0.32578 0.0
H135 H 0.02269 0.84669 0.31857 0.0
H136 H 0.98491 0.05949 0.35076 0.0
H137 H 0.00010 0.07536 0.36360 0.0
H138 H 0.97191 0.09877 0.34717 0.0
H139 H 0.95728 0.14937 0.33890 0.0
H140 H 0.03614 0.14145 0.32093 0.0
H141 H 0.05070 0.09085 0.32914 0.0
H142 H 0.96763 0.19079 0.32675 0.0
H143 H 0.02601 0.17766 0.31532 0.0
C144 C 0.03953 0.57984 0.79106 0.0
C145 C 0.05492 0.54564 0.80763 0.0
C146 C 0.04219 0.62313 0.77448 0.0
C147 C 0.05326 0.39863 0.76518 0.0
C148 C 0.04970 0.45995 0.79447 0.0
C149 C 0.07000 0.50723 0.82413 0.0
C150 C 0.02385 0.52513 0.81935 0.0
C151 C 0.05326 0.50197 0.79984 0.0
C152 C 0.93821 0.56105 0.86781 0.0
C153 C 0.00200 0.55249 0.85264 0.0
C154 C 0.06038 0.61129 0.78292 0.0
C155 C 0.05224 0.41972 0.77562 0.0
C156 C 0.11336 0.49434 0.82822 0.0
C157 C 0.05239 0.46399 0.78122 0.0
C158 C 0.05933 0.58893 0.79145 0.0
C159 C 0.98049 0.53812 0.83463 0.0
C160 C 0.05967 0.65386 0.76179 0.0
C161 C 0.92103 0.55459 0.86636 0.0
C162 C 0.04972 0.37871 0.76681 0.0
C163 C 0.96005 0.55412 0.85705 0.0
C164 C 0.04201 0.64470 0.76518 0.0
C165 C 0.02171 0.61422 0.77490 0.0
C166 C 0.02033 0.59277 0.78283 0.0
C167 C 0.04662 0.43848 0.79901 0.0
C168 C 0.15301 0.48867 0.84453 0.0
C169 C 0.13110 0.48972 0.84982 0.0
C170 C 0.15527 0.48444 0.83052 0.0
C171 C 0.00136 0.54259 0.83963 0.0
H172 H 0.94432 0.54220 0.84051 0.0
C173 C 0.17694 0.48374 0.85114 0.0
C174 C 0.18019 0.49180 0.86242 0.0
H175 H 0.98173 0.56417 0.87057 0.0
H176 H 0.04674 0.40205 0.79280 0.0
H177 H 0.09564 0.49604 0.84617 0.0
H178 H 0.05540 0.44522 0.76141 0.0
H179 H 0.13734 0.48757 0.81186 0.0
O180 O 0.03718 0.55775 0.79860 0.0
O181 O 0.09327 0.50015 0.81843 0.0
H182 H 0.07102 0.54200 0.80292 0.0
H183 H 0.05462 0.55689 0.81562 0.0
H184 H 0.06643 0.49184 0.82823 0.0
H185 H 0.06887 0.51970 0.83168 0.0
H186 H 0.02024 0.50868 0.82129 0.0
H187 H 0.01173 0.53550 0.81283 0.0
H188 H 0.06965 0.49862 0.79556 0.0
O189 O 0.02319 0.53853 0.83158 0.0
H190 H 0.93922 0.57075 0.87571 0.0
H191 H 0.04128 0.51039 0.79280 0.0
H192 H 0.01631 0.55568 0.85567 0.0
O193 O 0.04939 0.47845 0.80448 0.0
H194 H 0.05365 0.48016 0.77790 0.0
H195 H 0.07235 0.58072 0.79731 0.0
H196 H 0.07407 0.61745 0.78337 0.0
H197 H 0.98039 0.53120 0.82566 0.0
H198 H 0.07494 0.64655 0.76591 0.0
H199 H 0.91969 0.54390 0.85896 0.0
H200 H 0.05974 0.36853 0.77659 0.0
H201 H 0.02696 0.65316 0.76108 0.0
H202 H 0.00820 0.62310 0.76953 0.0
H203 H 0.00628 0.58712 0.78258 0.0
H204 H 0.04321 0.43622 0.80856 0.0
H205 H 0.12936 0.48755 0.85954 0.0
H206 H 0.17109 0.47831 0.82657 0.0
H207 H 0.19075 0.47352 0.84620 0.0
H208 H 0.16584 0.50038 0.86747 0.0
C209 C 0.95896 0.54448 0.84364 0.0
C210 C 0.98113 0.55790 0.86151 0.0
H211 H 0.05740 0.40230 0.75596 0.0
C212 C 0.04841 0.41787 0.78921 0.0
C213 C 0.05060 0.51979 0.81283 0.0
C214 C 0.11109 0.49371 0.84188 0.0
C215 C 0.05366 0.44237 0.77104 0.0
C216 C 0.13542 0.48864 0.82164 0.0
C217 C 0.03996 0.56730 0.23323 0.0
C218 C 0.02455 0.54359 0.21682 0.0
C219 C 0.03732 0.61141 0.24956 0.0
C220 C 0.02610 0.39341 0.26010 0.0
C221 C 0.02971 0.45396 0.23047 0.0
C222 C 0.00946 0.51548 0.20051 0.0
C223 C 0.05560 0.50418 0.20527 0.0
C224 C 0.02618 0.49850 0.22486 0.0
C225 C 0.14127 0.48879 0.15676 0.0
C226 C 0.07749 0.51950 0.17186 0.0
C227 C 0.01913 0.61142 0.24116 0.0
C228 C 0.02714 0.41439 0.24954 0.0
C229 C 0.96610 0.53001 0.19641 0.0
C230 C 0.02702 0.45903 0.24370 0.0
C231 C 0.02017 0.58883 0.23275 0.0
C232 C 0.09898 0.49072 0.19000 0.0
C233 C 0.01986 0.65247 0.26205 0.0
C234 C 0.15845 0.47147 0.15828 0.0
C235 C 0.02963 0.37135 0.25859 0.0
C236 C 0.11942 0.49502 0.16752 0.0
C237 C 0.03751 0.63240 0.25874 0.0
C238 C 0.05779 0.58967 0.24923 0.0
C239 C 0.05916 0.56776 0.24142 0.0
C240 C 0.03278 0.43079 0.22605 0.0
C241 C 0.92646 0.55006 0.18004 0.0
C242 C 0.94837 0.53761 0.17479 0.0
C243 C 0.92419 0.54654 0.19407 0.0
C244 C 0.07811 0.50855 0.18493 0.0
H245 H 0.13514 0.47240 0.18416 0.0
C246 C 0.90253 0.56048 0.17342 0.0
C247 C 0.89930 0.57115 0.16209 0.0
H248 H 0.09776 0.51937 0.15390 0.0
H249 H 0.03263 0.39413 0.23247 0.0
H250 H 0.98382 0.52150 0.17848 0.0
H251 H 0.02400 0.44114 0.26361 0.0
H252 H 0.94211 0.53748 0.21276 0.0
O253 O 0.04229 0.54412 0.22581 0.0
O254 O 0.98619 0.52273 0.20619 0.0
H255 H 0.00845 0.54982 0.22151 0.0
H256 H 0.02487 0.55506 0.20876 0.0
H257 H 0.01302 0.49806 0.19650 0.0
H258 H 0.01060 0.52762 0.19289 0.0
H259 H 0.05921 0.48555 0.20343 0.0
H260 H 0.06773 0.50661 0.21175 0.0
H261 H 0.00980 0.50521 0.22912 0.0
O262 O 0.05628 0.51778 0.19296 0.0
H263 H 0.14027 0.49952 0.14880 0.0
H264 H 0.03817 0.49903 0.23187 0.0
H265 H 0.06318 0.53182 0.16878 0.0
O266 O 0.03004 0.47277 0.22035 0.0
H267 H 0.02577 0.47582 0.24693 0.0
H268 H 0.00714 0.58910 0.22690 0.0
H269 H 0.00545 0.62619 0.24065 0.0
H270 H 0.09907 0.48328 0.19900 0.0
H271 H 0.00459 0.65495 0.25794 0.0
H272 H 0.15978 0.45957 0.16575 0.0
H273 H 0.01961 0.36795 0.24884 0.0
H274 H 0.05256 0.63120 0.26283 0.0
H275 H 0.07130 0.58981 0.25458 0.0
H276 H 0.07320 0.55328 0.24173 0.0
H277 H 0.03619 0.42688 0.21653 0.0
H278 H 0.95011 0.53484 0.16508 0.0
H279 H 0.90837 0.55014 0.19803 0.0
H280 H 0.88872 0.55868 0.17839 0.0
H281 H 0.91365 0.57098 0.15702 0.0
C282 C 0.12050 0.48403 0.18099 0.0
C283 C 0.09836 0.51226 0.16300 0.0
H284 H 0.02196 0.39921 0.26929 0.0
C285 C 0.03097 0.41082 0.23597 0.0
C286 C 0.02886 0.51529 0.21177 0.0
C287 C 0.96837 0.52865 0.18274 0.0
C288 C 0.02574 0.43768 0.25399 0.0
C289 C 0.94404 0.53782 0.20297 0.0
C290 C 0.75323 0.62281 0.06207 0.0
C291 C 0.72685 0.62326 0.06060 0.0
C292 C 0.72469 0.60263 0.05007 0.0
C293 C 0.76144 0.60503 0.03730 0.0
C294 C 0.76473 0.62550 0.04737 0.0
C295 C 0.72278 0.61168 0.02434 0.0
C296 C 0.61385 0.61349 0.01300 0.0
C297 C 0.63023 0.61127 0.99990 0.0
C298 C 0.64771 0.62876 0.00010 0.0
C299 C 0.68711 0.62014 0.01311 0.0
C300 C 0.64825 0.62294 0.02646 0.0
C301 C 0.63045 0.60635 0.02600 0.0
C302 C 0.72154 0.62143 0.00137 0.0
C303 C 0.75708 0.63557 0.96309 0.0
C304 C 0.77134 0.62087 0.97590 0.0
C305 C 0.73190 0.63048 0.96316 0.0
C306 C 0.71784 0.63919 0.97706 0.0
C307 C 0.75740 0.63018 0.98939 0.0
N308 N 0.73506 0.61505 0.01279 0.0
H309 H 0.76225 0.60578 0.06614 0.0
H310 H 0.71718 0.64058 0.05739 0.0
N311 N 0.69888 0.61429 0.02551 0.0
H312 H 0.72019 0.61984 0.06977 0.0
H313 H 0.70739 0.60400 0.04889 0.0
N314 N 0.66244 0.62197 0.01321 0.0
H315 H 0.77087 0.58766 0.04052 0.0
N316 N 0.73572 0.60631 0.03653 0.0
H317 H 0.76765 0.60802 0.02795 0.0
H318 H 0.60425 0.63211 0.01397 0.0
H319 H 0.63996 0.59310 0.99808 0.0
H320 H 0.73288 0.58521 0.05376 0.0
H321 H 0.75701 0.64292 0.04351 0.0
H322 H 0.78221 0.62348 0.04830 0.0
N323 N 0.69708 0.62424 0.00010 0.0
N324 N 0.73285 0.62670 0.98898 0.0
H325 H 0.65861 0.62613 0.99203 0.0
H326 H 0.63804 0.64713 0.00010 0.0
H327 H 0.75455 0.65437 0.96428 0.0
H328 H 0.63893 0.64105 0.02838 0.0
H329 H 0.65955 0.61668 0.03415 0.0
H330 H 0.61978 0.61665 0.99122 0.0
H331 H 0.62021 0.60914 0.03455 0.0
H332 H 0.63977 0.58789 0.02568 0.0
H333 H 0.77384 0.60214 0.97498 0.0
H334 H 0.71369 0.65815 0.97781 0.0
H335 H 0.70259 0.63441 0.97722 0.0
H336 H 0.76630 0.62031 0.99731 0.0
H337 H 0.75596 0.64862 0.99071 0.0
H338 H 0.78745 0.62380 0.97611 0.0
H339 H 0.72238 0.63999 0.95534 0.0
H340 H 0.73421 0.61186 0.96184 0.0
C341 C 0.33205 0.40089 0.96261 0.0
C342 C 0.35502 0.40905 0.96403 0.0
C343 C 0.37231 0.39152 0.97476 0.0
C344 C 0.33801 0.38293 0.98756 0.0
C345 C 0.31985 0.39998 0.97730 0.0
C346 C 0.36718 0.40023 0.00010 0.0
C347 C 0.46203 0.43390 0.01155 0.0
C348 C 0.44919 0.42721 0.02522 0.0
C349 C 0.42068 0.43752 0.02415 0.0
C350 C 0.39234 0.41825 0.01149 0.0
C351 C 0.42462 0.43206 0.99805 0.0
C352 C 0.45274 0.42262 0.99865 0.0
C353 C 0.36092 0.40936 0.02327 0.0
C354 C 0.31887 0.41165 0.06146 0.0
C355 C 0.31729 0.39440 0.04882 0.0
C356 C 0.34492 0.41455 0.06140 0.0
C357 C 0.35087 0.42629 0.04740 0.0
C358 C 0.32268 0.40663 0.03522 0.0
N359 N 0.35378 0.39968 0.01193 0.0
H360 H 0.33682 0.38317 0.95872 0.0
H361 H 0.35063 0.42720 0.96706 0.0
N362 N 0.38634 0.40955 0.99990 0.0
H363 H 0.36348 0.40792 0.95489 0.0
H364 H 0.38657 0.39781 0.97590 0.0
N365 N 0.41278 0.42711 0.01134 0.0
H366 H 0.34267 0.36479 0.98453 0.0
N367 N 0.35978 0.39162 0.98828 0.0
H368 H 0.33027 0.38380 0.99689 0.0
H369 H 0.45662 0.45316 0.01038 0.0
H370 H 0.45416 0.40830 0.02672 0.0
H371 H 0.37809 0.37370 0.97125 0.0
H372 H 0.31365 0.41766 0.98098 0.0
H373 H 0.30591 0.39306 0.97641 0.0
N374 N 0.38044 0.41903 0.02382 0.0
N375 N 0.34697 0.41077 0.03563 0.0
H376 H 0.41300 0.43205 0.03247 0.0
H377 H 0.41551 0.45659 0.02374 0.0
H378 H 0.30706 0.42900 0.06008 0.0
H379 H 0.41933 0.45079 0.99593 0.0
H380 H 0.41933 0.42316 0.99044 0.0
H381 H 0.45438 0.43508 0.03331 0.0
H382 H 0.45972 0.42805 0.99006 0.0
H383 H 0.45830 0.40358 0.99990 0.0
H384 H 0.32907 0.37712 0.04993 0.0
H385 H 0.34038 0.44426 0.04645 0.0
H386 H 0.36792 0.42654 0.04726 0.0
H387 H 0.32221 0.39525 0.02741 0.0
H388 H 0.31018 0.42334 0.03372 0.0
H389 H 0.30087 0.39225 0.04861 0.0
H390 H 0.34621 0.42579 0.06912 0.0
H391 H 0.35678 0.39743 0.06291 0.0
C392 C 0.89430 0.56633 0.87725 0.0
C393 C 0.87463 0.57624 0.88904 0.0
C394 C 0.85498 0.58614 0.90085 0.0
C395 C 0.83265 0.61036 0.89820 0.0
C396 C 0.81300 0.62025 0.91000 0.0
C397 C 0.81570 0.60594 0.92446 0.0
C398 C 0.83803 0.58171 0.92710 0.0
C399 C 0.85767 0.57181 0.91529 0.0
C400 C 0.79605 0.61583 0.93626 0.0
C401 C 0.77642 0.62571 0.94807 0.0
H402 H 0.83066 0.62098 0.88751 0.0
H403 H 0.79645 0.63817 0.90804 0.0
H404 H 0.84003 0.57111 0.93780 0.0
H405 H 0.87420 0.55387 0.91725 0.0
C406 C 0.88010 0.57050 0.14717 0.0
C407 C 0.86149 0.57965 0.13519 0.0
C408 C 0.84289 0.58883 0.12322 0.0
C409 C 0.84746 0.57444 0.10897 0.0
C410 C 0.82885 0.58361 0.09700 0.0
C411 C 0.80568 0.60720 0.09928 0.0
C412 C 0.80110 0.62159 0.11353 0.0
C413 C 0.81970 0.61240 0.12550 0.0
C414 C 0.78707 0.61637 0.08730 0.0
C415 C 0.76845 0.62557 0.07534 0.0
H416 H 0.86463 0.55700 0.10728 0.0
H417 H 0.83222 0.57294 0.08646 0.0
H418 H 0.78394 0.63904 0.11521 0.0
H419 H 0.81631 0.62304 0.13605 0.0
C420 C 0.19953 0.47386 0.87748 0.0
C421 C 0.21808 0.46386 0.88941 0.0
C422 C 0.23660 0.45388 0.90136 0.0
C423 C 0.25671 0.42727 0.89996 0.0
C424 C 0.27524 0.41730 0.91190 0.0
C425 C 0.27363 0.43392 0.92525 0.0
C426 C 0.25352 0.46053 0.92665 0.0
C427 C 0.23501 0.47051 0.91470 0.0
C428 C 0.29216 0.42394 0.93719 0.0
C429 C 0.31066 0.41398 0.94914 0.0
H430 H 0.25788 0.41496 0.89008 0.0
H431 H 0.29014 0.39761 0.91085 0.0
H432 H 0.25234 0.47283 0.93653 0.0
H433 H 0.22012 0.49022 0.91574 0.0
C434 C 0.18476 0.46286 0.14762 0.0
C435 C 0.20453 0.45440 0.13574 0.0
C436 C 0.22427 0.44595 0.12385 0.0
C437 C 0.24996 0.44969 0.12557 0.0
C438 C 0.26971 0.44122 0.11368 0.0
C439 C 0.26375 0.42905 0.10007 0.0
C440 C 0.23806 0.42531 0.09836 0.0
C441 C 0.21833 0.43375 0.11025 0.0
C442 C 0.28350 0.42059 0.08819 0.0
C443 C 0.30322 0.41212 0.07629 0.0
H444 H 0.25436 0.45872 0.13563 0.0
H445 H 0.28873 0.44396 0.11496 0.0
H446 H 0.23366 0.41628 0.08829 0.0
H447 H 0.19931 0.43097 0.10899 0.0
C448 C 0.51797 0.48926 0.01238 0.0
C449 C 0.53148 0.45959 0.01178 0.0
C450 C 0.51657 0.43962 0.01195 0.0
C451 C 0.48815 0.44932 0.01272 0.0
C452 C 0.47465 0.47898 0.01332 0.0
C453 C 0.48956 0.49894 0.01315 0.0
C454 C 0.53278 0.50930 0.01224 0.0
C455 C 0.54745 0.52949 0.01211 0.0
C456 C 0.56197 0.54981 0.01199 0.0
C457 C 0.59039 0.54064 0.01130 0.0
C458 C 0.60483 0.56105 0.01122 0.0
C459 C 0.59084 0.59061 0.01182 0.0
C460 C 0.56242 0.59976 0.01251 0.0
C461 C 0.54799 0.57936 0.01260 0.0
H462 H 0.55252 0.45241 0.01122 0.0
H463 H 0.52656 0.41766 0.01152 0.0
H464 H 0.45362 0.48617 0.01388 0.0
H465 H 0.47957 0.52090 0.01359 0.0
H466 H 0.60074 0.51877 0.01085 0.0
H467 H 0.62587 0.55428 0.01069 0.0
H468 H 0.55207 0.62163 0.01296 0.0
H469 H 0.52695 0.58613 0.01309 0.0
H470 H 0.09821 0.21593 0.70495 0.0
H471 H 0.08682 0.21789 0.73034 0.0
H472 H 0.09166 0.25802 0.71819 0.0
H473 H 0.06686 0.34429 0.77079 0.0
H474 H 0.07825 0.34233 0.74540 0.0
H475 H 0.07340 0.30220 0.75755 0.0
H476 H 0.03545 0.35380 0.76654 0.0
H477 H 0.04683 0.35184 0.74115 0.0
H478 H 0.04199 0.31172 0.75330 0.0
H479 H 0.06679 0.22545 0.70070 0.0
H480 H 0.05540 0.22740 0.72608 0.0
H481 H 0.06025 0.26753 0.71394 0.0
C482 C 0.08009 0.21492 0.70839 0.0
C483 C 0.07359 0.22841 0.72249 0.0
C484 C 0.07352 0.25705 0.72169 0.0
C485 C 0.06687 0.27045 0.73611 0.0
C486 C 0.05356 0.35481 0.76310 0.0
C487 C 0.06006 0.34133 0.74900 0.0
C488 C 0.06013 0.31269 0.74980 0.0
C489 C 0.06678 0.29929 0.73537 0.0
H490 H 0.05293 0.82975 0.71982 0.0
H491 H 0.09105 0.79717 0.72773 0.0
H492 H 0.05072 0.78876 0.73272 0.0
H493 H 0.08547 0.67320 0.76668 0.0
H494 H 0.04734 0.70578 0.75877 0.0
H495 H 0.08768 0.71419 0.75378 0.0
H496 H 0.08804 0.65688 0.75046 0.0
H497 H 0.04992 0.68946 0.74255 0.0
H498 H 0.09026 0.69787 0.73755 0.0
H499 H 0.05550 0.81344 0.70360 0.0
H500 H 0.09363 0.78086 0.71151 0.0
H501 H 0.05329 0.77244 0.71650 0.0
C502 C 0.06590 0.81808 0.71212 0.0
C503 C 0.08040 0.79274 0.71916 0.0
C504 C 0.06377 0.77698 0.72505 0.0
C505 C 0.07882 0.75129 0.73216 0.0
C506 C 0.07507 0.66855 0.75816 0.0
C507 C 0.06056 0.69390 0.75112 0.0
C508 C 0.07720 0.70965 0.74523 0.0
C509 C 0.06215 0.73535 0.73811 0.0
H510 H 0.97413 0.82245 0.31445 0.0
H511 H 0.01486 0.78911 0.31452 0.0
H512 H 0.98038 0.77944 0.30217 0.0
H513 H 0.03474 0.65907 0.27767 0.0
H514 H 0.99401 0.69241 0.27760 0.0
H515 H 0.02850 0.70208 0.28994 0.0
H516 H 0.04314 0.67276 0.26194 0.0
H517 H 0.00241 0.70610 0.26187 0.0
H518 H 0.03689 0.71576 0.27422 0.0
H519 H 0.98253 0.83614 0.29872 0.0
H520 H 0.02326 0.80280 0.29879 0.0
H521 H 0.98877 0.79313 0.28644 0.0
C522 C 0.98952 0.82586 0.30846 0.0
C523 C 0.00761 0.79961 0.30478 0.0
C524 C 0.99585 0.78274 0.29617 0.0
C525 C 0.01451 0.75613 0.29253 0.0
C526 C 0.02776 0.66935 0.26793 0.0
C527 C 0.00966 0.69560 0.27161 0.0
C528 C 0.02142 0.71247 0.28022 0.0
C529 C 0.00276 0.73908 0.28386 0.0
H530 H 0.97633 0.22290 0.30463 0.0
H531 H 0.01877 0.22132 0.29730 0.0
H532 H 0.98446 0.26163 0.29204 0.0
H533 H 0.04434 0.33755 0.25929 0.0
H534 H 0.00190 0.33913 0.26662 0.0
H535 H 0.03622 0.29882 0.27188 0.0
H536 H 0.04842 0.35069 0.27565 0.0
H537 H 0.00598 0.35227 0.28298 0.0
H538 H 0.04029 0.31196 0.28824 0.0
H539 H 0.98040 0.23604 0.32099 0.0
H540 H 0.02284 0.23446 0.31366 0.0
H541 H 0.98853 0.27477 0.30840 0.0
C542 C 0.98978 0.22315 0.31253 0.0
C543 C 0.00912 0.23422 0.30581 0.0
C544 C 0.99800 0.26192 0.29991 0.0
C545 C 0.01792 0.27285 0.29312 0.0
C546 C 0.03497 0.35044 0.26775 0.0
C547 C 0.01563 0.33937 0.27447 0.0
C548 C 0.02675 0.31167 0.28037 0.0
C549 C 0.00683 0.30074 0.28716 0.0
H550 H 0.01667 0.98309 0.50579 0.0
H551 H 0.03583 0.97802 0.52869 0.0
C552 C 0.02794 0.01527 0.50130 0.0
C553 C 0.02514 0.99430 0.50902 0.0
C554 C 0.03631 0.99132 0.52226 0.0
C555 C 0.04797 0.00981 0.52481 0.0
S556 S 0.04461 0.03162 0.51061 0.0
