data_{}
_symmetry_space_group_name_H-M    P1
_symmetry_Int_Tables_number       1
_symmetry_cell_setting            triclinic
loop_
_symmetry_equiv_pos_as_xyz
'x, y, z'
_cell_length_a     35.122
_cell_length_b     34.877
_cell_length_c     75.296
_cell_angle_alpha  90.526
_cell_angle_beta   89.387
_cell_angle_gamma  89.981
loop_
_atom_site_label
_atom_site_type_symbol
_atom_site_fract_x
_atom_site_fract_y
_atom_site_fract_z
_atom_type_partial_charge
H0 H 0.00834 0.39674 0.00212 0.0
H1 H 0.00700 0.18186 0.97828 0.0
H2 H 0.00984 0.18756 0.03183 0.0
H3 H 0.00927 0.08427 0.00632 0.0
H4 H 0.01062 0.29914 0.03016 0.0
H5 H 0.00777 0.29345 0.97662 0.0
C6 C 0.00498 0.12990 0.98838 0.0
C7 C 0.01238 0.13251 0.02202 0.0
C8 C 0.00899 0.11116 0.00588 0.0
C9 C 0.00743 0.16835 0.98902 0.0
C10 C 0.01073 0.17240 0.02142 0.0
C11 C 0.01058 0.18885 0.00439 0.0
C12 C 0.01264 0.35111 0.02007 0.0
C13 C 0.00524 0.34849 0.98643 0.0
C14 C 0.00863 0.36985 0.00256 0.0
C15 C 0.01019 0.31265 0.01942 0.0
C16 C 0.00688 0.30860 0.98702 0.0
C17 C 0.00703 0.29216 0.00406 0.0
N18 N 0.00788 0.22770 0.00399 0.0
N19 N 0.00974 0.25331 0.00445 0.0
H20 H 0.40265 0.99990 0.50362 0.0
H21 H 0.18919 0.99873 0.52745 0.0
H22 H 0.19503 0.00131 0.47390 0.0
H23 H 0.09237 0.00010 0.49940 0.0
H24 H 0.30583 0.00210 0.47557 0.0
H25 H 0.29999 0.99990 0.52912 0.0
C26 C 0.13762 0.99664 0.51736 0.0
C27 C 0.14033 0.00392 0.48370 0.0
C28 C 0.11907 0.00010 0.49985 0.0
C29 C 0.17581 0.99990 0.51671 0.0
C30 C 0.17994 0.00226 0.48430 0.0
C31 C 0.19621 0.00221 0.50134 0.0
C32 C 0.35740 0.00419 0.48566 0.0
C33 C 0.35469 0.99692 0.51932 0.0
C34 C 0.37595 0.00010 0.50317 0.0
C35 C 0.31921 0.00173 0.48631 0.0
C36 C 0.31508 0.99857 0.51872 0.0
C37 C 0.29881 0.99863 0.50168 0.0
N38 N 0.23480 0.99990 0.50174 0.0
N39 N 0.26022 0.00135 0.50128 0.0
H40 H 0.18772 0.26303 0.75812 0.0
H41 H 0.26898 0.29790 0.73867 0.0
C42 C 0.22548 0.31288 0.78151 0.0
C43 C 0.21989 0.26533 0.75965 0.0
C44 C 0.27082 0.26543 0.73698 0.0
C45 C 0.33186 0.24298 0.72590 0.0
H46 H 0.30401 0.21754 0.75910 0.0
H47 H 0.22474 0.18074 0.73914 0.0
C48 C 0.26387 0.16999 0.78264 0.0
C49 C 0.27170 0.21538 0.76027 0.0
C50 C 0.22309 0.21302 0.73702 0.0
C51 C 0.16323 0.23435 0.72494 0.0
C52 C 0.24638 0.23978 0.74835 0.0
O53 O 0.19177 0.31316 0.78330 0.0
O54 O 0.24385 0.28887 0.77079 0.0
O55 O 0.29441 0.24230 0.72485 0.0
O56 O 0.34801 0.25834 0.73797 0.0
O57 O 0.29738 0.16991 0.78484 0.0
O58 O 0.24661 0.19293 0.77140 0.0
O59 O 0.20076 0.23494 0.72434 0.0
O60 O 0.14585 0.22016 0.73699 0.0
H61 H 0.18958 0.21723 0.24697 0.0
H62 H 0.27007 0.18111 0.26584 0.0
C63 C 0.22832 0.16884 0.22287 0.0
C64 C 0.22182 0.21502 0.24537 0.0
C65 C 0.27182 0.21346 0.26796 0.0
C66 C 0.33240 0.23519 0.27927 0.0
H67 H 0.30589 0.26272 0.24647 0.0
H68 H 0.22579 0.29830 0.26700 0.0
C69 C 0.26670 0.31176 0.22363 0.0
C70 C 0.27363 0.26497 0.24536 0.0
C71 C 0.22407 0.26589 0.26868 0.0
C72 C 0.16372 0.24384 0.28053 0.0
C73 C 0.24784 0.23983 0.25698 0.0
O74 O 0.19468 0.16869 0.22112 0.0
O75 O 0.24624 0.19217 0.23390 0.0
O76 O 0.29490 0.23582 0.28037 0.0
O77 O 0.34905 0.22058 0.26699 0.0
O78 O 0.30029 0.31196 0.22140 0.0
O79 O 0.24898 0.28813 0.23457 0.0
O80 O 0.20123 0.24319 0.28109 0.0
O81 O 0.14683 0.25879 0.26870 0.0
C82 C 0.21917 0.74180 0.83732 0.0
C83 C 0.23690 0.74151 0.81854 0.0
C84 C 0.24568 0.70297 0.80924 0.0
C85 C 0.24562 0.77976 0.80930 0.0
C86 C 0.21038 0.78034 0.84662 0.0
C87 C 0.21045 0.70355 0.84655 0.0
C88 C 0.28403 0.68286 0.81209 0.0
C89 C 0.29385 0.64627 0.80169 0.0
C90 C 0.26324 0.62590 0.79065 0.0
C91 C 0.22490 0.64602 0.78780 0.0
C92 C 0.21507 0.68261 0.79820 0.0
C93 C 0.28393 0.80001 0.81219 0.0
C94 C 0.29369 0.83628 0.80185 0.0
C95 C 0.26305 0.85627 0.79084 0.0
C96 C 0.22474 0.83602 0.78796 0.0
C97 C 0.21498 0.79975 0.79830 0.0
C98 C 0.17204 0.80046 0.84377 0.0
C99 C 0.16222 0.83704 0.85417 0.0
C100 C 0.19283 0.85741 0.86521 0.0
C101 C 0.23117 0.83729 0.86806 0.0
C102 C 0.24099 0.80071 0.85766 0.0
C103 C 0.17213 0.68331 0.84367 0.0
C104 C 0.16237 0.64704 0.85400 0.0
C105 C 0.19301 0.62705 0.86501 0.0
C106 C 0.23133 0.64730 0.86789 0.0
C107 C 0.24109 0.68356 0.85756 0.0
H108 H 0.30518 0.69527 0.82198 0.0
H109 H 0.32393 0.63405 0.80212 0.0
H110 H 0.20371 0.63366 0.77791 0.0
H111 H 0.18499 0.69483 0.79777 0.0
H112 H 0.30510 0.78793 0.82206 0.0
H113 H 0.32375 0.84854 0.80230 0.0
H114 H 0.18492 0.78749 0.79785 0.0
H115 H 0.15089 0.78805 0.83388 0.0
H116 H 0.13214 0.84926 0.85374 0.0
H117 H 0.25236 0.84965 0.87794 0.0
H118 H 0.27107 0.78849 0.85809 0.0
H119 H 0.15097 0.69538 0.83380 0.0
H120 H 0.13231 0.63478 0.85355 0.0
H121 H 0.25254 0.63527 0.87776 0.0
H122 H 0.27115 0.69582 0.85801 0.0
H123 H 0.20353 0.84805 0.77810 0.0
C124 C 0.74658 0.21366 0.33749 0.0
C125 C 0.74690 0.23155 0.31888 0.0
C126 C 0.78519 0.24041 0.30967 0.0
C127 C 0.70893 0.24034 0.30974 0.0
C128 C 0.70830 0.20479 0.34671 0.0
C129 C 0.78455 0.20487 0.34664 0.0
C130 C 0.80512 0.27903 0.31288 0.0
C131 C 0.84146 0.28894 0.30257 0.0
C132 C 0.86175 0.25814 0.29123 0.0
C133 C 0.84182 0.21953 0.28802 0.0
C134 C 0.80547 0.20961 0.29832 0.0
C135 C 0.68878 0.27891 0.31300 0.0
C136 C 0.65278 0.28876 0.30276 0.0
C137 C 0.63299 0.25792 0.29146 0.0
C138 C 0.65314 0.21934 0.28820 0.0
C139 C 0.68914 0.20950 0.29844 0.0
C140 C 0.68837 0.16618 0.34350 0.0
C141 C 0.65202 0.15627 0.35381 0.0
C142 C 0.63174 0.18707 0.36515 0.0
C143 C 0.65167 0.22568 0.36836 0.0
C144 C 0.68801 0.23559 0.35805 0.0
C145 C 0.80470 0.16629 0.34338 0.0
C146 C 0.84070 0.15645 0.35362 0.0
C147 C 0.86049 0.18729 0.36492 0.0
C148 C 0.84034 0.22586 0.36817 0.0
C149 C 0.80435 0.23570 0.35794 0.0
H150 H 0.79275 0.30030 0.32298 0.0
H151 H 0.85357 0.31923 0.30329 0.0
H152 H 0.85414 0.19821 0.27793 0.0
H153 H 0.79337 0.17932 0.29761 0.0
H154 H 0.70073 0.30021 0.32307 0.0
H155 H 0.64057 0.31902 0.30350 0.0
H156 H 0.70135 0.17923 0.29770 0.0
H157 H 0.70074 0.14490 0.33340 0.0
H158 H 0.63992 0.12598 0.35309 0.0
H159 H 0.63935 0.24699 0.37845 0.0
H160 H 0.70012 0.26588 0.35877 0.0
H161 H 0.79276 0.14499 0.33331 0.0
H162 H 0.85291 0.12618 0.35288 0.0
H163 H 0.85224 0.24720 0.37824 0.0
H164 H 0.79214 0.26597 0.35868 0.0
H165 H 0.64125 0.19800 0.27814 0.0
C166 C 0.22275 0.73899 0.16808 0.0
C167 C 0.24063 0.73925 0.18665 0.0
C168 C 0.24949 0.77777 0.19585 0.0
C169 C 0.24942 0.70098 0.19577 0.0
C170 C 0.21389 0.70047 0.15888 0.0
C171 C 0.21397 0.77726 0.15895 0.0
C172 C 0.28782 0.79785 0.19256 0.0
C173 C 0.29772 0.83442 0.20285 0.0
C174 C 0.26721 0.85481 0.21425 0.0
C175 C 0.22888 0.83473 0.21754 0.0
C176 C 0.21898 0.79816 0.20725 0.0
C177 C 0.28770 0.68070 0.19244 0.0
C178 C 0.29754 0.64441 0.20266 0.0
C179 C 0.26698 0.62444 0.21402 0.0
C180 C 0.22869 0.64473 0.21735 0.0
C181 C 0.21886 0.68101 0.20714 0.0
C182 C 0.17556 0.68039 0.16217 0.0
C183 C 0.16566 0.64382 0.15188 0.0
C184 C 0.19618 0.62343 0.14048 0.0
C185 C 0.23450 0.64351 0.13718 0.0
C186 C 0.24441 0.68008 0.14747 0.0
C187 C 0.17568 0.79754 0.16229 0.0
C188 C 0.16584 0.83383 0.15207 0.0
C189 C 0.19640 0.85380 0.14071 0.0
C190 C 0.23469 0.83351 0.13738 0.0
C191 C 0.24452 0.79723 0.14759 0.0
H192 H 0.30888 0.78543 0.18242 0.0
H193 H 0.32780 0.84661 0.20207 0.0
H194 H 0.20778 0.84710 0.22768 0.0
H195 H 0.18890 0.78597 0.20803 0.0
H196 H 0.30879 0.69276 0.18233 0.0
H197 H 0.32759 0.63212 0.20185 0.0
H198 H 0.18881 0.69331 0.20794 0.0
H199 H 0.15450 0.69281 0.17231 0.0
H200 H 0.13558 0.63163 0.15266 0.0
H201 H 0.25561 0.63114 0.12705 0.0
H202 H 0.27449 0.69227 0.14670 0.0
H203 H 0.15459 0.78548 0.17240 0.0
H204 H 0.13579 0.84612 0.15288 0.0
H205 H 0.25582 0.84552 0.12727 0.0
H206 H 0.27458 0.78493 0.14679 0.0
H207 H 0.20756 0.63272 0.22746 0.0
C208 C 0.74786 0.22973 0.68652 0.0
C209 C 0.74821 0.21185 0.66776 0.0
C210 C 0.71026 0.20305 0.65853 0.0
C211 C 0.78651 0.20299 0.65847 0.0
C212 C 0.78582 0.23852 0.69575 0.0
C213 C 0.70956 0.23858 0.69581 0.0
C214 C 0.69014 0.16447 0.66145 0.0
C215 C 0.65417 0.15463 0.65112 0.0
C216 C 0.63435 0.18547 0.64009 0.0
C217 C 0.65447 0.22405 0.63717 0.0
C218 C 0.69044 0.23389 0.64749 0.0
C219 C 0.80648 0.16438 0.66136 0.0
C220 C 0.84285 0.15448 0.65097 0.0
C221 C 0.86311 0.18529 0.63989 0.0
C222 C 0.84314 0.22390 0.63701 0.0
C223 C 0.80678 0.23380 0.64740 0.0
C224 C 0.80593 0.27710 0.69282 0.0
C225 C 0.84191 0.28694 0.70315 0.0
C226 C 0.86172 0.25610 0.71419 0.0
C227 C 0.84161 0.21753 0.71711 0.0
C228 C 0.80563 0.20768 0.70678 0.0
C229 C 0.68960 0.27719 0.69292 0.0
C230 C 0.65323 0.28710 0.70331 0.0
C231 C 0.63296 0.25629 0.71438 0.0
C232 C 0.65293 0.21767 0.71727 0.0
C233 C 0.68930 0.20777 0.70688 0.0
H234 H 0.70210 0.14317 0.67134 0.0
H235 H 0.64199 0.12436 0.65160 0.0
H236 H 0.64256 0.24539 0.62728 0.0
H237 H 0.70263 0.26416 0.64702 0.0
H238 H 0.79412 0.14310 0.67127 0.0
H239 H 0.85498 0.12419 0.65143 0.0
H240 H 0.79464 0.26409 0.64694 0.0
H241 H 0.79397 0.29840 0.68293 0.0
H242 H 0.85409 0.31722 0.70268 0.0
H243 H 0.85352 0.19619 0.72700 0.0
H244 H 0.79345 0.17741 0.70726 0.0
H245 H 0.70195 0.29847 0.68301 0.0
H246 H 0.64109 0.31738 0.70285 0.0
H247 H 0.64062 0.19635 0.72717 0.0
H248 H 0.70143 0.17748 0.70734 0.0
H249 H 0.85545 0.24523 0.62710 0.0
N250 N 0.25056 0.44345 0.78686 0.0
N251 N 0.25498 0.48738 0.78682 0.0
N252 N 0.03974 0.24521 0.28754 0.0
N253 N 0.99613 0.24980 0.28748 0.0
N254 N 0.26062 0.44205 0.21816 0.0
N255 N 0.26334 0.48612 0.21808 0.0
N256 N 0.45562 0.24378 0.71863 0.0
N257 N 0.49924 0.24827 0.71854 0.0
N258 N 0.25720 0.03936 0.78759 0.0
N259 N 0.25977 0.99528 0.78741 0.0
N260 N 0.03964 0.25100 0.71783 0.0
N261 N 0.99586 0.25344 0.71791 0.0
N262 N 0.25403 0.03793 0.21763 0.0
N263 N 0.25858 0.99401 0.21777 0.0
N264 N 0.45575 0.25240 0.28693 0.0
N265 N 0.49952 0.25496 0.28711 0.0
C266 C 0.00338 0.41770 0.95718 0.0
C267 C 0.04707 0.41641 0.95534 0.0
C268 C 0.07013 0.38747 0.96619 0.0
C269 C 0.04951 0.35984 0.97889 0.0
C270 C 0.00582 0.36113 0.98074 0.0
C271 C 0.98275 0.39006 0.96988 0.0
C272 C 0.06770 0.44413 0.94268 0.0
C273 C 0.08836 0.47188 0.93003 0.0
C274 C 0.10905 0.49965 0.91742 0.0
C275 C 0.12976 0.52747 0.90483 0.0
C276 C 0.15048 0.55532 0.89226 0.0
C277 C 0.19423 0.55447 0.89071 0.0
C278 C 0.21497 0.58242 0.87820 0.0
C279 C 0.19197 0.61120 0.86723 0.0
C280 C 0.14822 0.61202 0.86877 0.0
C281 C 0.12748 0.58408 0.88129 0.0
H282 H 0.98629 0.43910 0.94914 0.0
H283 H 0.10248 0.38651 0.96482 0.0
H284 H 0.06659 0.33841 0.98692 0.0
H285 H 0.95041 0.39101 0.97125 0.0
H286 H 0.21126 0.53317 0.89883 0.0
H287 H 0.24736 0.58181 0.87706 0.0
H288 H 0.13119 0.63332 0.86065 0.0
H289 H 0.09509 0.58469 0.88243 0.0
C290 C 0.10937 0.02375 0.44569 0.0
C291 C 0.07194 0.04043 0.45330 0.0
C292 C 0.06225 0.03607 0.47317 0.0
C293 C 0.08996 0.01500 0.48543 0.0
C294 C 0.12738 0.99830 0.47783 0.0
C295 C 0.13708 0.00268 0.45795 0.0
C296 C 0.04417 0.06139 0.44102 0.0
C297 C 0.01636 0.08232 0.42876 0.0
C298 C 0.98850 0.10319 0.41649 0.0
C299 C 0.96059 0.12400 0.40422 0.0
C300 C 0.93266 0.14477 0.39196 0.0
C301 C 0.89492 0.16076 0.39954 0.0
C302 C 0.86691 0.18139 0.38726 0.0
C303 C 0.87665 0.18604 0.36741 0.0
C304 C 0.91441 0.17009 0.35984 0.0
C305 C 0.94242 0.14945 0.37211 0.0
H306 H 0.11656 0.02700 0.43098 0.0
H307 H 0.03456 0.04844 0.47880 0.0
H308 H 0.08279 0.01177 0.50015 0.0
H309 H 0.16479 0.99034 0.45232 0.0
H310 H 0.88771 0.15730 0.41423 0.0
H311 H 0.83896 0.19320 0.39287 0.0
H312 H 0.92163 0.17355 0.34514 0.0
H313 H 0.97037 0.13763 0.36650 0.0
C314 C 0.07029 0.39002 0.03653 0.0
C315 C 0.04848 0.41059 0.05170 0.0
C316 C 0.00560 0.40323 0.05444 0.0
C317 C 0.98451 0.37534 0.04200 0.0
C318 C 0.00630 0.35479 0.02682 0.0
C319 C 0.04920 0.36213 0.02409 0.0
C320 C 0.06955 0.43857 0.06411 0.0
C321 C 0.09058 0.46660 0.07651 0.0
C322 C 0.11157 0.49468 0.08890 0.0
C323 C 0.13253 0.52282 0.10127 0.0
C324 C 0.15348 0.55100 0.11363 0.0
C325 C 0.13144 0.57209 0.12857 0.0
C326 C 0.15234 0.60039 0.14088 0.0
C327 C 0.19528 0.60759 0.13827 0.0
C328 C 0.21732 0.58647 0.12334 0.0
C329 C 0.19642 0.55818 0.11102 0.0
H330 H 0.10204 0.39544 0.03451 0.0
H331 H 0.98947 0.41844 0.06568 0.0
H332 H 0.95276 0.36990 0.04402 0.0
H333 H 0.06534 0.34690 0.01286 0.0
H334 H 0.09964 0.56677 0.13051 0.0
H335 H 0.13602 0.61602 0.15194 0.0
H336 H 0.24911 0.59179 0.12141 0.0
H337 H 0.21274 0.54254 0.09996 0.0
C338 C 0.41081 0.99778 0.55408 0.0
C339 C 0.42289 0.03939 0.55033 0.0
C340 C 0.40728 0.06028 0.53401 0.0
C341 C 0.37962 0.03953 0.52144 0.0
C342 C 0.36756 0.99792 0.52518 0.0
C343 C 0.38315 0.97704 0.54151 0.0
C344 C 0.45065 0.06009 0.56287 0.0
C345 C 0.47845 0.08080 0.57540 0.0
C346 C 0.50630 0.10150 0.58789 0.0
C347 C 0.53420 0.12220 0.60037 0.0
C348 C 0.56214 0.14288 0.61283 0.0
C349 C 0.57474 0.18424 0.60885 0.0
C350 C 0.60280 0.20487 0.62126 0.0
C351 C 0.61825 0.18417 0.63767 0.0
C352 C 0.60561 0.14283 0.64166 0.0
C353 C 0.57755 0.12219 0.62924 0.0
H354 H 0.42235 0.98233 0.56617 0.0
H355 H 0.41621 0.09109 0.53124 0.0
H356 H 0.36806 0.05500 0.50936 0.0
H357 H 0.37420 0.94624 0.54429 0.0
H358 H 0.56331 0.19956 0.59670 0.0
H359 H 0.61215 0.23547 0.61831 0.0
H360 H 0.61703 0.12751 0.65380 0.0
H361 H 0.56821 0.09158 0.63219 0.0
C362 C 0.04377 0.06079 0.97630 0.0
C363 C 0.04767 0.07014 0.95642 0.0
C364 C 0.03071 0.10754 0.94920 0.0
C365 C 0.00980 0.13557 0.96186 0.0
C366 C 0.00587 0.12621 0.98174 0.0
C367 C 0.02286 0.08882 0.98896 0.0
C368 C 0.06848 0.04205 0.94374 0.0
C369 C 0.08924 0.01396 0.93106 0.0
C370 C 0.10993 0.98585 0.91836 0.0
C371 C 0.13055 0.95771 0.90564 0.0
C372 C 0.15114 0.92957 0.89292 0.0
C373 C 0.15435 0.93864 0.87299 0.0
C374 C 0.17479 0.91042 0.86025 0.0
C375 C 0.19203 0.87314 0.86745 0.0
C376 C 0.18886 0.86408 0.88739 0.0
C377 C 0.16841 0.89230 0.90013 0.0
H378 H 0.05635 0.03312 0.98165 0.0
H379 H 0.03362 0.11447 0.93448 0.0
H380 H 0.99724 0.16325 0.95651 0.0
H381 H 0.01997 0.08190 0.00368 0.0
H382 H 0.14157 0.96624 0.86766 0.0
H383 H 0.17714 0.91713 0.84549 0.0
H384 H 0.20164 0.83649 0.89272 0.0
H385 H 0.16605 0.88559 0.91489 0.0
C386 C 0.10113 0.06248 0.53607 0.0
C387 C 0.07744 0.03936 0.54955 0.0
C388 C 0.08186 0.99549 0.55040 0.0
C389 C 0.10994 0.97473 0.53775 0.0
C390 C 0.13361 0.99784 0.52425 0.0
C391 C 0.12921 0.04172 0.52341 0.0
C392 C 0.04928 0.06011 0.56217 0.0
C393 C 0.02107 0.08083 0.57478 0.0
C394 C 0.99280 0.10151 0.58736 0.0
C395 C 0.96448 0.12218 0.59993 0.0
C396 C 0.93612 0.14282 0.61249 0.0
C397 C 0.91194 0.11954 0.62573 0.0
C398 C 0.88346 0.14016 0.63823 0.0
C399 C 0.87918 0.18406 0.63751 0.0
C400 C 0.90340 0.20734 0.62428 0.0
C401 C 0.93187 0.18672 0.61178 0.0
H402 H 0.09789 0.09496 0.53545 0.0
H403 H 0.06434 0.97838 0.56040 0.0
H404 H 0.11320 0.94225 0.53838 0.0
H405 H 0.14675 0.05883 0.51343 0.0
H406 H 0.91509 0.08704 0.62626 0.0
H407 H 0.86553 0.12293 0.64802 0.0
H408 H 0.90025 0.23984 0.62376 0.0
H409 H 0.94979 0.20396 0.60198 0.0
C410 C 0.04228 0.05330 0.03263 0.0
C411 C 0.04786 0.06380 0.05234 0.0
C412 C 0.03263 0.10221 0.05975 0.0
C413 C 0.01185 0.13014 0.04744 0.0
C414 C 0.00629 0.11965 0.02773 0.0
C415 C 0.02150 0.08122 0.02032 0.0
C416 C 0.06875 0.03592 0.06464 0.0
C417 C 0.08968 0.00808 0.07694 0.0
C418 C 0.11067 0.98029 0.08924 0.0
C419 C 0.13171 0.95255 0.10154 0.0
C420 C 0.15280 0.92483 0.11384 0.0
C421 C 0.15898 0.93574 0.13346 0.0
C422 C 0.18021 0.90811 0.14575 0.0
C423 C 0.19523 0.86955 0.13842 0.0
C424 C 0.18900 0.85862 0.11880 0.0
C425 C 0.16779 0.88626 0.10651 0.0
H426 H 0.05353 0.02485 0.02715 0.0
H427 H 0.03675 0.10997 0.07434 0.0
H428 H 0.00010 0.15857 0.05292 0.0
H429 H 0.01736 0.07345 0.00573 0.0
H430 H 0.14788 0.96430 0.13889 0.0
H431 H 0.18482 0.91620 0.16027 0.0
H432 H 0.20010 0.83006 0.11338 0.0
H433 H 0.16318 0.87817 0.09199 0.0
C434 C 0.40552 0.99838 0.44964 0.0
C435 C 0.41852 0.03945 0.45417 0.0
C436 C 0.40312 0.05978 0.47101 0.0
C437 C 0.37468 0.03906 0.48331 0.0
C438 C 0.36166 0.99800 0.47878 0.0
C439 C 0.37708 0.97765 0.46195 0.0
C440 C 0.44686 0.06023 0.44184 0.0
C441 C 0.47517 0.08104 0.42950 0.0
C442 C 0.50342 0.10190 0.41715 0.0
C443 C 0.53161 0.12280 0.40479 0.0
C444 C 0.55977 0.14373 0.39242 0.0
C445 C 0.57215 0.18507 0.39680 0.0
C446 C 0.60017 0.20607 0.38440 0.0
C447 C 0.61585 0.18572 0.36762 0.0
C448 C 0.60350 0.14436 0.36325 0.0
C449 C 0.57546 0.12337 0.37565 0.0
H450 H 0.41694 0.98332 0.43719 0.0
H451 H 0.41276 0.09018 0.47436 0.0
H452 H 0.36328 0.05411 0.49578 0.0
H453 H 0.36746 0.94725 0.45860 0.0
H454 H 0.56053 0.20015 0.40922 0.0
H455 H 0.60931 0.23668 0.38763 0.0
H456 H 0.61512 0.12928 0.35083 0.0
H457 H 0.56632 0.09275 0.37242 0.0
