data_{}
_symmetry_space_group_name_H-M    P1
_symmetry_Int_Tables_number       1
_symmetry_cell_setting            triclinic
loop_
_symmetry_equiv_pos_as_xyz
'x, y, z'
_cell_length_a     50.869
_cell_length_b     48.638
_cell_length_c     71.673
_cell_angle_alpha  89.246
_cell_angle_beta   91.374
_cell_angle_gamma  89.249
loop_
_atom_site_label
_atom_site_type_symbol
_atom_site_fract_x
_atom_site_fract_y
_atom_site_fract_z
_atom_type_partial_charge
H0 H 0.06667 0.02568 0.00237 0.0
H1 H 0.08126 0.04045 0.01885 0.0
H2 H 0.08135 0.00827 0.01807 0.0
H3 H 0.95844 0.02867 0.02507 0.0
H4 H 0.97151 0.04609 0.00933 0.0
H5 H 0.97001 0.01402 0.00768 0.0
H6 H 0.04228 0.01701 0.08092 0.0
H7 H 0.01487 0.03168 0.08265 0.0
H8 H 0.01640 0.99990 0.07899 0.0
H9 H 0.02744 0.05924 0.93378 0.0
H10 H 0.03922 0.02963 0.93114 0.0
H11 H 0.00863 0.03434 0.93067 0.0
H12 H 0.02817 0.09612 0.99320 0.0
H13 H 0.00973 0.08126 0.00727 0.0
H14 H 0.04035 0.07776 0.00942 0.0
H15 H 0.01714 0.96376 0.98435 0.0
H16 H 0.03387 0.97415 0.00143 0.0
H17 H 0.00311 0.97680 0.00141 0.0
C18 C 0.07116 0.02468 0.01545 0.0
C19 C 0.04691 0.02280 0.04594 0.0
C20 C 0.04634 0.02414 0.02654 0.0
C21 C 0.02241 0.02572 0.01679 0.0
C22 C 0.99990 0.02597 0.02644 0.0
C23 C 0.99990 0.02463 0.04584 0.0
C24 C 0.02352 0.02305 0.05558 0.0
C25 C 0.97226 0.02897 0.01617 0.0
C26 C 0.02433 0.01741 0.07644 0.0
C27 C 0.02131 0.00899 0.96530 0.0
C28 C 0.02447 0.03494 0.95739 0.0
C29 C 0.02625 0.05783 0.96874 0.0
C30 C 0.02492 0.05477 0.98801 0.0
C31 C 0.02175 0.02879 0.99592 0.0
C32 C 0.01998 0.00590 0.98455 0.0
C33 C 0.02497 0.04001 0.93627 0.0
C34 C 0.02586 0.07980 0.00010 0.0
C35 C 0.01839 0.97752 0.99379 0.0
Si36 Si 0.53113 0.53120 0.51248 0.0
C37 C 0.59118 0.55016 0.55026 0.0
C38 C 0.50868 0.58851 0.47147 0.0
C39 C 0.51032 0.56552 0.48327 0.0
C40 C 0.53126 0.56200 0.49657 0.0
C41 C 0.55091 0.58170 0.49681 0.0
C42 C 0.54967 0.60431 0.48464 0.0
C43 C 0.52857 0.60776 0.47230 0.0
C44 C 0.50710 0.46004 0.48517 0.0
C45 C 0.50875 0.48140 0.49781 0.0
C46 C 0.52810 0.50094 0.49665 0.0
C47 C 0.54633 0.49888 0.48231 0.0
C48 C 0.54520 0.47781 0.46965 0.0
C49 C 0.52581 0.45837 0.47096 0.0
H50 H 0.62787 0.53412 0.55142 0.0
C51 C 0.46070 0.55627 0.53529 0.0
C52 C 0.45610 0.53612 0.54855 0.0
C53 C 0.47381 0.51471 0.55146 0.0
C54 C 0.49633 0.51353 0.54116 0.0
C55 C 0.50171 0.53344 0.52767 0.0
H56 H 0.52766 0.62318 0.46447 0.0
C57 C 0.48332 0.55449 0.52498 0.0
H58 H 0.49743 0.55220 0.48240 0.0
H59 H 0.52505 0.44413 0.46247 0.0
H60 H 0.44096 0.53703 0.55553 0.0
C61 C 0.61154 0.53287 0.54537 0.0
H62 H 0.56507 0.57971 0.50520 0.0
H63 H 0.49657 0.48257 0.50725 0.0
H64 H 0.55941 0.51198 0.48134 0.0
C65 C 0.60777 0.51342 0.53134 0.0
C66 C 0.58356 0.51246 0.52190 0.0
C67 C 0.56238 0.52997 0.52654 0.0
C68 C 0.56706 0.54824 0.54083 0.0
H69 H 0.50825 0.49908 0.54327 0.0
H70 H 0.48633 0.56791 0.51594 0.0
H71 H 0.58130 0.49999 0.51230 0.0
H72 H 0.55342 0.55985 0.54432 0.0
C73 C 0.88269 0.40783 0.67120 0.0
C74 C 0.89569 0.37947 0.66831 0.0
C75 C 0.92383 0.37379 0.67590 0.0
C76 C 0.93714 0.34556 0.67307 0.0
C77 C 0.96534 0.34011 0.68068 0.0
C78 C 0.98016 0.36292 0.69105 0.0
C79 C 0.96682 0.39108 0.69392 0.0
C80 C 0.93867 0.39653 0.68633 0.0
C81 C 0.01614 0.32799 0.69728 0.0
C82 C 0.04255 0.32709 0.70807 0.0
C83 C 0.06796 0.33434 0.69804 0.0
C84 C 0.09339 0.33863 0.70962 0.0
C85 C 0.09414 0.33240 0.73076 0.0
C86 C 0.06919 0.32259 0.74043 0.0
C87 C 0.04335 0.31999 0.72907 0.0
C88 C 0.01786 0.31241 0.73898 0.0
C89 C 0.06741 0.33954 0.67676 0.0
C90 C 0.11963 0.33697 0.74226 0.0
C91 C 0.11803 0.34948 0.70018 0.0
C92 C 0.14571 0.39053 0.69915 0.0
C93 C 0.16348 0.37296 0.68681 0.0
C94 C 0.19004 0.38420 0.68054 0.0
C95 C 0.19878 0.41299 0.68661 0.0
C96 C 0.18088 0.43065 0.69883 0.0
C97 C 0.15432 0.41941 0.70511 0.0
C98 C 0.22547 0.42402 0.68046 0.0
C99 C 0.24330 0.40618 0.66831 0.0
C100 C 0.06954 0.31693 0.76160 0.0
C101 C 0.07760 0.27949 0.78435 0.0
C102 C 0.07073 0.30068 0.79929 0.0
C103 C 0.06506 0.29096 0.81929 0.0
C104 C 0.06621 0.26007 0.82428 0.0
C105 C 0.07316 0.23892 0.80933 0.0
C106 C 0.07886 0.24863 0.78935 0.0
C107 C 0.06031 0.25021 0.84420 0.0
C108 C 0.06130 0.21926 0.84898 0.0
O109 O 0.00762 0.35769 0.69872 0.0
O110 O 0.08187 0.28883 0.76456 0.0
O111 O 0.12013 0.37916 0.70579 0.0
H112 H 0.89393 0.42448 0.67895 0.0
H113 H 0.88452 0.36276 0.66058 0.0
H114 H 0.92615 0.32872 0.66536 0.0
H115 H 0.97523 0.31923 0.67863 0.0
H116 H 0.97781 0.40789 0.70168 0.0
H117 H 0.92880 0.41739 0.68842 0.0
H118 H 0.01870 0.32208 0.68208 0.0
H119 H 0.00148 0.31395 0.70432 0.0
H120 H 0.02138 0.31324 0.75473 0.0
H121 H 0.01173 0.29079 0.73493 0.0
H122 H 0.00164 0.32774 0.73462 0.0
H123 H 0.04642 0.34453 0.67177 0.0
H124 H 0.07467 0.32023 0.66951 0.0
H125 H 0.08074 0.35741 0.67318 0.0
H126 H 0.11595 0.33271 0.75766 0.0
H127 H 0.12600 0.35919 0.74031 0.0
H128 H 0.13577 0.32255 0.73726 0.0
H129 H 0.13610 0.33736 0.70548 0.0
H130 H 0.11593 0.34792 0.68436 0.0
H131 H 0.15702 0.35160 0.68240 0.0
H132 H 0.20327 0.37120 0.67144 0.0
H133 H 0.18731 0.45201 0.70327 0.0
H134 H 0.14107 0.43240 0.71422 0.0
H135 H 0.23204 0.44534 0.68490 0.0
H136 H 0.23667 0.38489 0.66389 0.0
H137 H 0.08142 0.33303 0.76941 0.0
H138 H 0.04848 0.31687 0.76671 0.0
H139 H 0.06967 0.32351 0.79550 0.0
H140 H 0.05991 0.30660 0.83039 0.0
H141 H 0.07399 0.21606 0.81307 0.0
H142 H 0.08384 0.23300 0.77823 0.0
H143 H 0.05519 0.26575 0.85536 0.0
H144 H 0.06642 0.20380 0.83777 0.0
C145 C 0.67199 0.87785 0.34760 0.0
C146 C 0.69556 0.89464 0.35474 0.0
C147 C 0.70480 0.91957 0.34331 0.0
C148 C 0.72839 0.93652 0.35024 0.0
C149 C 0.73753 0.96140 0.33867 0.0
C150 C 0.72308 0.96922 0.32021 0.0
C151 C 0.69946 0.95233 0.31333 0.0
C152 C 0.69034 0.92750 0.32488 0.0
C153 C 0.75226 0.01036 0.31897 0.0
C154 C 0.75506 0.03557 0.30613 0.0
C155 C 0.77397 0.03446 0.28974 0.0
C156 C 0.77289 0.05758 0.27489 0.0
C157 C 0.75536 0.08322 0.27762 0.0
C158 C 0.73832 0.08538 0.29501 0.0
C159 C 0.73814 0.06149 0.30926 0.0
C160 C 0.71946 0.06259 0.32584 0.0
C161 C 0.79225 0.00926 0.28740 0.0
C162 C 0.75424 0.10616 0.26260 0.0
C163 C 0.78902 0.05503 0.25716 0.0
C164 C 0.78311 0.04878 0.22332 0.0
C165 C 0.81302 0.05296 0.22279 0.0
C166 C 0.82676 0.05454 0.20392 0.0
C167 C 0.81057 0.05193 0.18561 0.0
C168 C 0.78068 0.04752 0.18616 0.0
C169 C 0.76694 0.04594 0.20504 0.0
C170 C 0.82437 0.05379 0.16677 0.0
C171 C 0.85425 0.05833 0.16634 0.0
C172 C 0.72028 0.11058 0.29767 0.0
C173 C 0.72046 0.15621 0.31182 0.0
C174 C 0.69154 0.15861 0.30511 0.0
C175 C 0.67372 0.18143 0.31277 0.0
C176 C 0.68486 0.20172 0.32715 0.0
C177 C 0.71380 0.19933 0.33381 0.0
C178 C 0.73162 0.17655 0.32613 0.0
C179 C 0.66708 0.22440 0.33500 0.0
C180 C 0.67837 0.24441 0.34949 0.0
O181 O 0.73168 0.99368 0.30892 0.0
O182 O 0.73756 0.13310 0.30505 0.0
O183 O 0.76956 0.04814 0.24177 0.0
H184 H 0.66148 0.88395 0.33390 0.0
H185 H 0.70612 0.88861 0.36842 0.0
H186 H 0.73909 0.93067 0.36389 0.0
H187 H 0.75496 0.97401 0.34377 0.0
H188 H 0.68874 0.95825 0.29969 0.0
H189 H 0.67289 0.91495 0.31978 0.0
H190 H 0.77162 0.99835 0.32047 0.0
H191 H 0.74506 0.01693 0.33320 0.0
H192 H 0.70512 0.08064 0.32374 0.0
H193 H 0.73132 0.06531 0.33937 0.0
H194 H 0.70806 0.04260 0.32659 0.0
H195 H 0.78431 0.99101 0.29557 0.0
H196 H 0.81276 0.01430 0.29304 0.0
H197 H 0.79343 0.00388 0.27202 0.0
H198 H 0.73924 0.12256 0.26660 0.0
H199 H 0.74817 0.09695 0.24863 0.0
H200 H 0.77445 0.11579 0.26141 0.0
H201 H 0.79879 0.07544 0.25392 0.0
H202 H 0.80450 0.03797 0.25890 0.0
H203 H 0.82495 0.05500 0.23636 0.0
H204 H 0.84890 0.05770 0.20349 0.0
H205 H 0.76872 0.04549 0.17261 0.0
H206 H 0.74478 0.04280 0.20549 0.0
H207 H 0.81249 0.05186 0.15317 0.0
H208 H 0.86607 0.06025 0.17997 0.0
H209 H 0.71030 0.11733 0.28393 0.0
H210 H 0.70480 0.10533 0.30836 0.0
H211 H 0.68331 0.14341 0.29459 0.0
H212 H 0.65228 0.18324 0.30786 0.0
H213 H 0.72199 0.21438 0.34446 0.0
H214 H 0.75301 0.17463 0.33113 0.0
H215 H 0.64563 0.22634 0.33012 0.0
H216 H 0.69983 0.24239 0.35433 0.0
C217 C 0.82826 0.67956 0.66665 0.0
C218 C 0.84184 0.66486 0.68351 0.0
C219 C 0.86985 0.67302 0.68964 0.0
C220 C 0.88373 0.65846 0.70645 0.0
C221 C 0.91179 0.66672 0.71244 0.0
C222 C 0.92589 0.68948 0.70160 0.0
C223 C 0.91198 0.70408 0.68486 0.0
C224 C 0.88397 0.69583 0.67887 0.0
C225 C 0.96229 0.68473 0.72572 0.0
C226 C 0.98838 0.69909 0.72997 0.0
C227 C 0.01397 0.68795 0.72175 0.0
C228 C 0.03896 0.70534 0.72300 0.0
C229 C 0.03918 0.73201 0.73436 0.0
C230 C 0.01410 0.74170 0.74407 0.0
C231 C 0.98866 0.72523 0.74183 0.0
C232 C 0.96301 0.73611 0.75022 0.0
C233 C 0.01398 0.66070 0.71099 0.0
C234 C 0.06423 0.74941 0.73540 0.0
C235 C 0.06370 0.69637 0.71271 0.0
C236 C 0.09069 0.71028 0.68627 0.0
C237 C 0.10914 0.68666 0.69297 0.0
C238 C 0.13570 0.68216 0.68355 0.0
C239 C 0.14374 0.70129 0.66744 0.0
C240 C 0.12516 0.72479 0.66064 0.0
C241 C 0.09861 0.72928 0.67007 0.0
C242 C 0.17043 0.69688 0.65818 0.0
C243 C 0.18894 0.67342 0.66512 0.0
C244 C 0.01391 0.76862 0.75508 0.0
C245 C 0.02193 0.78573 0.78672 0.0
C246 C 0.01423 0.81424 0.77859 0.0
C247 C 0.00812 0.83806 0.79179 0.0
C248 C 0.00966 0.83328 0.81307 0.0
C249 C 0.01743 0.80477 0.82117 0.0
C250 C 0.02358 0.78097 0.80798 0.0
C251 C 0.00332 0.85694 0.82634 0.0
C252 C 0.00471 0.85185 0.84758 0.0
O253 O 0.95321 0.69792 0.70748 0.0
O254 O 0.02664 0.76206 0.77384 0.0
O255 O 0.06511 0.71522 0.69590 0.0
H256 H 0.83897 0.69640 0.65879 0.0
H257 H 0.83120 0.64800 0.69141 0.0
H258 H 0.87327 0.64158 0.71443 0.0
H259 H 0.92211 0.65602 0.72489 0.0
H260 H 0.92244 0.72101 0.67690 0.0
H261 H 0.87367 0.70659 0.66645 0.0
H262 H 0.96541 0.66164 0.72411 0.0
H263 H 0.94766 0.68917 0.73714 0.0
H264 H 0.96603 0.75802 0.75521 0.0
H265 H 0.95738 0.72243 0.76249 0.0
H266 H 0.94665 0.73596 0.73906 0.0
H267 H 0.99305 0.65581 0.70617 0.0
H268 H 0.02180 0.64345 0.72062 0.0
H269 H 0.02710 0.66245 0.69837 0.0
H270 H 0.06015 0.76895 0.74352 0.0
H271 H 0.07027 0.75507 0.72064 0.0
H272 H 0.08077 0.73705 0.74269 0.0
H273 H 0.08182 0.69899 0.72216 0.0
H274 H 0.06211 0.67407 0.70815 0.0
H275 H 0.10320 0.67259 0.70496 0.0
H276 H 0.14943 0.66472 0.68851 0.0
H277 H 0.13109 0.73888 0.64866 0.0
H278 H 0.08486 0.74674 0.66511 0.0
H279 H 0.17649 0.71096 0.64624 0.0
H280 H 0.18282 0.65936 0.67706 0.0
H281 H 0.02526 0.78535 0.74760 0.0
H282 H 0.99270 0.77570 0.75701 0.0
H283 H 0.01288 0.81763 0.76283 0.0
H284 H 0.00236 0.85920 0.78583 0.0
H285 H 0.01855 0.80129 0.83693 0.0
H286 H 0.02917 0.75981 0.81394 0.0
H287 H 0.99759 0.87813 0.82046 0.0
H288 H 0.01044 0.83062 0.85340 0.0
C289 C 0.37660 0.81677 0.34303 0.0
C290 C 0.34963 0.83047 0.34618 0.0
C291 C 0.34407 0.85986 0.33873 0.0
C292 C 0.31721 0.87389 0.34181 0.0
C293 C 0.31187 0.90333 0.33435 0.0
C294 C 0.33340 0.91866 0.32385 0.0
C295 C 0.36019 0.90461 0.32072 0.0
C296 C 0.36553 0.87521 0.32817 0.0
C297 C 0.29995 0.95635 0.31801 0.0
C298 C 0.29885 0.98388 0.30731 0.0
C299 C 0.30617 0.01052 0.31737 0.0
C300 C 0.31000 0.03699 0.30585 0.0
C301 C 0.30341 0.03763 0.28476 0.0
C302 C 0.29364 0.01148 0.27507 0.0
C303 C 0.29141 0.98456 0.28637 0.0
C304 C 0.28378 0.95785 0.27642 0.0
C305 C 0.31180 0.01010 0.33862 0.0
C306 C 0.30751 0.06416 0.27330 0.0
C307 C 0.32076 0.06281 0.31529 0.0
C308 C 0.36012 0.09163 0.31611 0.0
C309 C 0.34377 0.11037 0.32864 0.0
C310 C 0.35480 0.13817 0.33493 0.0
C311 C 0.38216 0.14716 0.32866 0.0
C312 C 0.39861 0.12828 0.31625 0.0
C313 C 0.38757 0.10049 0.30997 0.0
C314 C 0.39299 0.17509 0.33483 0.0
C315 C 0.37637 0.19389 0.34717 0.0
C316 C 0.28758 0.01169 0.25394 0.0
C317 C 0.25112 0.02005 0.23149 0.0
C318 C 0.27089 0.01266 0.21637 0.0
C319 C 0.26097 0.00660 0.19642 0.0
C320 C 0.23129 0.00786 0.19167 0.0
C321 C 0.21155 0.01532 0.20680 0.0
C322 C 0.22147 0.02142 0.22673 0.0
C323 C 0.22123 0.00156 0.17179 0.0
C324 C 0.19150 0.00265 0.16725 0.0
O325 O 0.32826 0.94733 0.31632 0.0
O326 O 0.26067 0.02465 0.25123 0.0
O327 O 0.34896 0.06486 0.30947 0.0
H328 H 0.39232 0.82840 0.33520 0.0
H329 H 0.33386 0.81891 0.35400 0.0
H330 H 0.30132 0.86251 0.34962 0.0
H331 H 0.29200 0.91375 0.33658 0.0
H332 H 0.37606 0.91598 0.31287 0.0
H333 H 0.38537 0.86481 0.32589 0.0
H334 H 0.29477 0.95917 0.33326 0.0
H335 H 0.28626 0.94100 0.31102 0.0
H336 H 0.28410 0.96140 0.26067 0.0
H337 H 0.26321 0.95154 0.28061 0.0
H338 H 0.29851 0.94088 0.28061 0.0
H339 H 0.31665 0.98817 0.34350 0.0
H340 H 0.29359 0.01782 0.34604 0.0
H341 H 0.32903 0.02401 0.34211 0.0
H342 H 0.30295 0.06020 0.25793 0.0
H343 H 0.32882 0.07077 0.27511 0.0
H344 H 0.29393 0.08113 0.27847 0.0
H345 H 0.30907 0.08170 0.31015 0.0
H346 H 0.31974 0.06075 0.33112 0.0
H347 H 0.32346 0.10372 0.33319 0.0
H348 H 0.34269 0.15212 0.34417 0.0
H349 H 0.41890 0.13491 0.31168 0.0
H350 H 0.39966 0.08652 0.30071 0.0
H351 H 0.41325 0.18185 0.33025 0.0
H352 H 0.35613 0.18707 0.35173 0.0
H353 H 0.30277 0.02399 0.24605 0.0
H354 H 0.28729 0.98962 0.24876 0.0
H355 H 0.29282 0.01152 0.21999 0.0
H356 H 0.27555 0.00108 0.18519 0.0
H357 H 0.18959 0.01623 0.20324 0.0
H358 H 0.20689 0.02677 0.23799 0.0
H359 H 0.23572 0.99606 0.16049 0.0
H360 H 0.17708 0.00815 0.17859 0.0
C361 C 0.67599 0.50933 0.56253 0.0
C362 C 0.68192 0.47865 0.56648 0.0
C363 C 0.66430 0.45656 0.55768 0.0
C364 C 0.64073 0.46516 0.54494 0.0
C365 C 0.63479 0.49584 0.54099 0.0
C366 C 0.65242 0.51793 0.54978 0.0
C367 C 0.70545 0.47005 0.57928 0.0
C368 C 0.72894 0.46144 0.59209 0.0
C369 C 0.75241 0.45280 0.60492 0.0
C370 C 0.77584 0.44416 0.61779 0.0
C371 C 0.79925 0.43551 0.63066 0.0
C372 C 0.80483 0.40483 0.63488 0.0
C373 C 0.82817 0.39618 0.64783 0.0
C374 C 0.84594 0.41821 0.65654 0.0
C375 C 0.84038 0.44888 0.65230 0.0
C376 C 0.81704 0.45754 0.63936 0.0
H377 H 0.68905 0.52568 0.56903 0.0
H378 H 0.66870 0.43385 0.56060 0.0
H379 H 0.62769 0.44881 0.53842 0.0
H380 H 0.64803 0.54064 0.54685 0.0
H381 H 0.79166 0.38853 0.62844 0.0
H382 H 0.83228 0.37347 0.65096 0.0
H383 H 0.85355 0.46519 0.65875 0.0
H384 H 0.81292 0.48025 0.63623 0.0
C385 C 0.58198 0.42214 0.46077 0.0
C386 C 0.58372 0.42585 0.43946 0.0
C387 C 0.57374 0.45271 0.42996 0.0
C388 C 0.56199 0.47585 0.44175 0.0
C389 C 0.56023 0.47215 0.46305 0.0
C390 C 0.57024 0.44529 0.47256 0.0
C391 C 0.59540 0.40267 0.42766 0.0
C392 C 0.60704 0.37948 0.41584 0.0
C393 C 0.61864 0.35629 0.40401 0.0
C394 C 0.63018 0.33308 0.39216 0.0
C395 C 0.64170 0.30987 0.38031 0.0
C396 C 0.64295 0.31342 0.35897 0.0
C397 C 0.65435 0.29017 0.34711 0.0
C398 C 0.66454 0.26337 0.35658 0.0
C399 C 0.66332 0.25983 0.37793 0.0
C400 C 0.65190 0.28308 0.38979 0.0
H401 H 0.58940 0.40227 0.46780 0.0
H402 H 0.57504 0.45545 0.41419 0.0
H403 H 0.55459 0.49574 0.43472 0.0
H404 H 0.56895 0.44255 0.48833 0.0
H405 H 0.63540 0.33326 0.35195 0.0
H406 H 0.65526 0.29279 0.33131 0.0
H407 H 0.67087 0.23999 0.38494 0.0
H408 H 0.65100 0.28046 0.40559 0.0
C409 C 0.39244 0.60838 0.54543 0.0
C410 C 0.38877 0.59573 0.56498 0.0
C411 C 0.40809 0.57339 0.57256 0.0
C412 C 0.43105 0.56368 0.56056 0.0
C413 C 0.43471 0.57632 0.54100 0.0
C414 C 0.41541 0.59868 0.53343 0.0
C415 C 0.36576 0.60537 0.57695 0.0
C416 C 0.34272 0.61498 0.58892 0.0
C417 C 0.31967 0.62454 0.60089 0.0
C418 C 0.29659 0.63406 0.61285 0.0
C419 C 0.27350 0.64355 0.62480 0.0
C420 C 0.26958 0.63047 0.64420 0.0
C421 C 0.24643 0.63987 0.65613 0.0
C422 C 0.22719 0.66235 0.64865 0.0
C423 C 0.23113 0.67545 0.62926 0.0
C424 C 0.25428 0.66604 0.61733 0.0
H425 H 0.37816 0.62494 0.53983 0.0
H426 H 0.40537 0.56403 0.58704 0.0
H427 H 0.44535 0.54714 0.56617 0.0
H428 H 0.41813 0.60804 0.51896 0.0
H429 H 0.28382 0.61382 0.64973 0.0
H430 H 0.24352 0.63017 0.67048 0.0
H431 H 0.21690 0.69210 0.62373 0.0
H432 H 0.25719 0.67574 0.60297 0.0
C433 C 0.60296 0.64904 0.45149 0.0
C434 C 0.58992 0.67773 0.45229 0.0
C435 C 0.56697 0.68284 0.46549 0.0
C436 C 0.55704 0.65923 0.47787 0.0
C437 C 0.57007 0.63053 0.47706 0.0
C438 C 0.59303 0.62543 0.46387 0.0
C439 C 0.59979 0.70132 0.43986 0.0
C440 C 0.60963 0.72491 0.42741 0.0
C441 C 0.61943 0.74849 0.41495 0.0
C442 C 0.62918 0.77207 0.40247 0.0
C443 C 0.63891 0.79565 0.38997 0.0
C444 C 0.62549 0.82418 0.39054 0.0
C445 C 0.63514 0.84773 0.37799 0.0
C446 C 0.65822 0.84275 0.36487 0.0
C447 C 0.67165 0.81423 0.36432 0.0
C448 C 0.66200 0.79068 0.37687 0.0
H449 H 0.61997 0.64526 0.44172 0.0
H450 H 0.55733 0.70408 0.46609 0.0
H451 H 0.54005 0.66301 0.48764 0.0
H452 H 0.60269 0.60419 0.46328 0.0
H453 H 0.60840 0.82787 0.40024 0.0
H454 H 0.62520 0.86885 0.37840 0.0
H455 H 0.68874 0.81055 0.35462 0.0
H456 H 0.67194 0.76955 0.37646 0.0
C457 C 0.47864 0.41501 0.44121 0.0
C458 C 0.46513 0.38980 0.44974 0.0
C459 C 0.46232 0.38730 0.47104 0.0
C460 C 0.47304 0.40999 0.48381 0.0
C461 C 0.48655 0.43519 0.47528 0.0
C462 C 0.48935 0.43770 0.45398 0.0
C463 C 0.45449 0.36706 0.43698 0.0
C464 C 0.44388 0.34430 0.42423 0.0
C465 C 0.43330 0.32150 0.41149 0.0
C466 C 0.42276 0.29867 0.39876 0.0
C467 C 0.41224 0.27583 0.38604 0.0
C468 C 0.39921 0.25039 0.39464 0.0
C469 C 0.38880 0.22748 0.38193 0.0
C470 C 0.39140 0.23002 0.36061 0.0
C471 C 0.40441 0.25547 0.35201 0.0
C472 C 0.41483 0.27838 0.36473 0.0
H473 H 0.48070 0.41687 0.42544 0.0
H474 H 0.45231 0.36864 0.47735 0.0
H475 H 0.47096 0.40814 0.49957 0.0
H476 H 0.49934 0.45637 0.44766 0.0
H477 H 0.39729 0.24851 0.41042 0.0
H478 H 0.37916 0.20864 0.38829 0.0
H479 H 0.40632 0.25736 0.33624 0.0
H480 H 0.42447 0.29722 0.35836 0.0
C481 C 0.42062 0.48040 0.56010 0.0
C482 C 0.42064 0.48578 0.58123 0.0
C483 C 0.44354 0.50132 0.59051 0.0
C484 C 0.46645 0.51146 0.57868 0.0
C485 C 0.46644 0.50606 0.55755 0.0
C486 C 0.44351 0.49054 0.54826 0.0
C487 C 0.39778 0.47557 0.59307 0.0
C488 C 0.37494 0.46533 0.60493 0.0
C489 C 0.35214 0.45506 0.61681 0.0
C490 C 0.32936 0.44475 0.62870 0.0
C491 C 0.30661 0.43441 0.64060 0.0
C492 C 0.30694 0.43935 0.66178 0.0
C493 C 0.28424 0.42891 0.67370 0.0
C494 C 0.26121 0.41355 0.66443 0.0
C495 C 0.26087 0.40863 0.64325 0.0
C496 C 0.28357 0.41906 0.63133 0.0
H497 H 0.40365 0.46892 0.55322 0.0
H498 H 0.44355 0.50531 0.60615 0.0
H499 H 0.48341 0.52296 0.58555 0.0
H500 H 0.44350 0.48656 0.53262 0.0
H501 H 0.32400 0.45072 0.66864 0.0
H502 H 0.28450 0.43255 0.68938 0.0
H503 H 0.24381 0.39727 0.63639 0.0
H504 H 0.28331 0.41542 0.61565 0.0
C505 C 0.48342 0.64401 0.45696 0.0
C506 C 0.47309 0.63691 0.43726 0.0
C507 C 0.47598 0.60737 0.43005 0.0
C508 C 0.48924 0.58494 0.44253 0.0
C509 C 0.49958 0.59204 0.46222 0.0
C510 C 0.49667 0.62158 0.46944 0.0
C511 C 0.45991 0.65937 0.42476 0.0
C512 C 0.44676 0.68182 0.41224 0.0
C513 C 0.43365 0.70427 0.39970 0.0
C514 C 0.42058 0.72672 0.38714 0.0
C515 C 0.40755 0.74918 0.37456 0.0
C516 C 0.39770 0.74214 0.35473 0.0
C517 C 0.38476 0.76461 0.34213 0.0
C518 C 0.38166 0.79412 0.34935 0.0
C519 C 0.39148 0.80116 0.36919 0.0
C520 C 0.40442 0.77868 0.38179 0.0
H521 H 0.48125 0.66588 0.46231 0.0
H522 H 0.46833 0.60211 0.41547 0.0
H523 H 0.49138 0.56307 0.43718 0.0
H524 H 0.50431 0.62683 0.48403 0.0
H525 H 0.40000 0.72029 0.34938 0.0
H526 H 0.37749 0.75940 0.32744 0.0
H527 H 0.38917 0.82300 0.37454 0.0
H528 H 0.41170 0.78389 0.39648 0.0
C529 C 0.63314 0.60103 0.56255 0.0
C530 C 0.64228 0.58740 0.58115 0.0
C531 C 0.62814 0.56181 0.58854 0.0
C532 C 0.60483 0.54988 0.57734 0.0
C533 C 0.59567 0.56352 0.55876 0.0
C534 C 0.60983 0.58909 0.55135 0.0
C535 C 0.66554 0.59939 0.59237 0.0
C536 C 0.68877 0.61138 0.60362 0.0
C537 C 0.71196 0.62339 0.61489 0.0
C538 C 0.73513 0.63543 0.62619 0.0
C539 C 0.75828 0.64747 0.63750 0.0
C540 C 0.76704 0.63411 0.65627 0.0
C541 C 0.79011 0.64622 0.66762 0.0
C542 C 0.80442 0.67168 0.66020 0.0
C543 C 0.79567 0.68502 0.64142 0.0
C544 C 0.77260 0.67292 0.63007 0.0
H545 H 0.64362 0.61995 0.55707 0.0
H546 H 0.63492 0.55171 0.60230 0.0
H547 H 0.59436 0.53094 0.58282 0.0
H548 H 0.60307 0.59918 0.53759 0.0
H549 H 0.75644 0.61527 0.66176 0.0
H550 H 0.79659 0.63635 0.68152 0.0
H551 H 0.80628 0.70386 0.63592 0.0
H552 H 0.76612 0.68280 0.61617 0.0
C553 C 0.97392 0.03401 0.06216 0.0
C554 C 0.95454 0.03851 0.07804 0.0
C555 C 0.93515 0.04303 0.09394 0.0
C556 C 0.91585 0.04754 0.10985 0.0
C557 C 0.89662 0.05205 0.12585 0.0
C558 C 0.87747 0.05656 0.14187 0.0
C559 C 0.03256 0.08453 0.95025 0.0
C560 C 0.03668 0.10670 0.93511 0.0
C561 C 0.04082 0.12888 0.91996 0.0
C562 C 0.04503 0.15102 0.90483 0.0
C563 C 0.04937 0.17318 0.88969 0.0
C564 C 0.05379 0.19531 0.87457 0.0
C565 C 0.07234 0.02383 0.06118 0.0
C566 C 0.09210 0.01925 0.07757 0.0
C567 C 0.11188 0.01467 0.09397 0.0
C568 C 0.13169 0.01011 0.11032 0.0
C569 C 0.15163 0.00557 0.12662 0.0
C570 C 0.17161 0.00104 0.14288 0.0
C571 C 0.01771 0.98083 0.95073 0.0
C572 C 0.01449 0.96109 0.93424 0.0
C573 C 0.01128 0.94133 0.91774 0.0
C574 C 0.00815 0.92157 0.90126 0.0
C575 C 0.00515 0.90178 0.88476 0.0
C576 C 0.00223 0.88199 0.86827 0.0
