data_{}
_symmetry_space_group_name_H-M    P1
_symmetry_Int_Tables_number       1
_symmetry_cell_setting            triclinic
loop_
_symmetry_equiv_pos_as_xyz
'x, y, z'
_cell_length_a     75.836
_cell_length_b     75.607
_cell_length_c     40.308
_cell_angle_alpha  90.115
_cell_angle_beta   90.114
_cell_angle_gamma  97.959
loop_
_atom_site_label
_atom_site_type_symbol
_atom_site_fract_x
_atom_site_fract_y
_atom_site_fract_z
_atom_type_partial_charge
C0 C 0.01526 0.51748 0.03322 0.0
C1 C 0.99496 0.51750 0.03315 0.0
C2 C 0.98480 0.51751 0.00010 0.0
C3 C 0.99494 0.51750 0.96698 0.0
C4 C 0.01525 0.51748 0.96705 0.0
C5 C 0.02541 0.51747 0.00010 0.0
H6 H 0.04044 0.51746 0.00010 0.0
H7 H 0.96977 0.51752 0.99990 0.0
C8 C 0.51956 0.01290 0.96704 0.0
C9 C 0.51955 0.99253 0.96698 0.0
C10 C 0.51955 0.98235 0.00010 0.0
C11 C 0.51955 0.99254 0.03316 0.0
C12 C 0.51956 0.01291 0.03322 0.0
C13 C 0.51956 0.02309 0.00010 0.0
H14 H 0.51956 0.03817 0.00010 0.0
H15 H 0.51954 0.96727 0.99990 0.0
C16 C 0.50258 0.53428 0.49287 0.0
C17 C 0.46889 0.49698 0.51071 0.0
Fe18 Fe 0.49930 0.49768 0.46372 0.0
Fe19 Fe 0.50616 0.50309 0.53633 0.0
O20 O 0.50530 0.52876 0.52100 0.0
O21 O 0.47388 0.49558 0.48178 0.0
O22 O 0.50518 0.47598 0.53225 0.0
O23 O 0.52655 0.50123 0.46508 0.0
O24 O 0.50016 0.47201 0.47906 0.0
O25 O 0.53158 0.50519 0.51827 0.0
C26 C 0.50288 0.46649 0.50719 0.0
C27 C 0.53657 0.50379 0.48934 0.0
O28 O 0.50028 0.52479 0.46780 0.0
O29 O 0.47891 0.49954 0.53498 0.0
C30 C 0.09087 0.50352 0.28009 0.0
C31 C 0.09160 0.48655 0.30086 0.0
C32 C 0.10422 0.48721 0.33094 0.0
C33 C 0.10515 0.47034 0.35191 0.0
C34 C 0.11785 0.47113 0.38192 0.0
C35 C 0.12960 0.48876 0.39083 0.0
C36 C 0.12862 0.50562 0.36995 0.0
C37 C 0.11594 0.50484 0.33998 0.0
C38 C 0.13923 0.47293 0.44097 0.0
C39 C 0.15117 0.47796 0.47125 0.0
C40 C 0.17099 0.47570 0.47001 0.0
C41 C 0.18353 0.48394 0.49768 0.0
C42 C 0.17594 0.49243 0.52834 0.0
C43 C 0.15579 0.49312 0.53090 0.0
C44 C 0.14340 0.48590 0.50228 0.0
C45 C 0.12349 0.48792 0.50353 0.0
C46 C 0.17847 0.46659 0.43988 0.0
C47 C 0.18860 0.50078 0.55579 0.0
C48 C 0.20370 0.48395 0.49462 0.0
C49 C 0.23134 0.50466 0.48649 0.0
C50 C 0.24064 0.48806 0.49205 0.0
C51 C 0.26109 0.49000 0.49392 0.0
C52 C 0.27220 0.50853 0.49023 0.0
C53 C 0.26289 0.52512 0.48439 0.0
C54 C 0.24244 0.52317 0.48252 0.0
C55 C 0.29264 0.51043 0.49245 0.0
C56 C 0.30183 0.49379 0.49844 0.0
C57 C 0.14811 0.50192 0.56104 0.0
C58 C 0.13580 0.49456 0.61631 0.0
C59 C 0.13307 0.51432 0.61860 0.0
C60 C 0.12112 0.52044 0.64593 0.0
C61 C 0.11189 0.50677 0.67082 0.0
C62 C 0.11467 0.48702 0.66853 0.0
C63 C 0.12664 0.48091 0.64125 0.0
C64 C 0.09978 0.51278 0.69799 0.0
C65 C 0.09050 0.49896 0.72254 0.0
O66 O 0.14191 0.48971 0.42034 0.0
O67 O 0.14677 0.48838 0.58861 0.0
O68 O 0.21132 0.50283 0.48575 0.0
H69 H 0.09964 0.51648 0.28707 0.0
H70 H 0.08286 0.47356 0.29396 0.0
H71 H 0.09646 0.45729 0.34522 0.0
H72 H 0.11855 0.45867 0.39751 0.0
H73 H 0.13728 0.51868 0.37670 0.0
H74 H 0.11523 0.51730 0.32447 0.0
H75 H 0.14367 0.46125 0.42684 0.0
H76 H 0.12474 0.46969 0.44897 0.0
H77 H 0.12104 0.49709 0.52502 0.0
H78 H 0.11524 0.47428 0.50720 0.0
H79 H 0.11950 0.49396 0.47921 0.0
H80 H 0.16906 0.46687 0.41784 0.0
H81 H 0.17962 0.45212 0.44641 0.0
H82 H 0.19218 0.47382 0.43319 0.0
H83 H 0.18068 0.50719 0.57537 0.0
H84 H 0.19896 0.51138 0.54437 0.0
H85 H 0.19560 0.48999 0.56775 0.0
H86 H 0.20936 0.48010 0.51938 0.0
H87 H 0.20679 0.47432 0.47433 0.0
H88 H 0.23238 0.47436 0.49492 0.0
H89 H 0.26800 0.47773 0.49811 0.0
H90 H 0.27114 0.53883 0.48154 0.0
H91 H 0.23551 0.53544 0.47834 0.0
H92 H 0.30094 0.52411 0.48971 0.0
H93 H 0.29350 0.48012 0.50116 0.0
H94 H 0.15708 0.51462 0.56881 0.0
H95 H 0.13426 0.50517 0.55459 0.0
H96 H 0.13980 0.52437 0.59996 0.0
H97 H 0.11904 0.53506 0.64767 0.0
H98 H 0.10781 0.47693 0.68699 0.0
H99 H 0.12862 0.46628 0.63937 0.0
H100 H 0.09767 0.52738 0.69989 0.0
H101 H 0.09264 0.48437 0.72054 0.0
C102 C 0.50463 0.08860 0.28008 0.0
C103 C 0.52130 0.09512 0.30100 0.0
C104 C 0.51980 0.10740 0.33108 0.0
C105 C 0.53636 0.11408 0.35219 0.0
C106 C 0.53472 0.12640 0.38219 0.0
C107 C 0.51655 0.13203 0.39094 0.0
C108 C 0.50000 0.12530 0.36991 0.0
C109 C 0.50163 0.11300 0.33996 0.0
C110 C 0.53149 0.14698 0.44121 0.0
C111 C 0.52573 0.15710 0.47145 0.0
C112 C 0.52661 0.17752 0.47022 0.0
C113 C 0.51764 0.18714 0.49781 0.0
C114 C 0.50979 0.17671 0.52841 0.0
C115 C 0.51048 0.15651 0.53097 0.0
C116 C 0.51844 0.14669 0.50241 0.0
C117 C 0.51779 0.12626 0.50365 0.0
C118 C 0.53509 0.18804 0.44018 0.0
C119 C 0.50071 0.18642 0.55578 0.0
C120 C 0.51627 0.20713 0.49475 0.0
C121 C 0.49399 0.22747 0.48643 0.0
C122 C 0.50972 0.24234 0.49213 0.0
C123 C 0.50642 0.26196 0.49398 0.0
C124 C 0.48740 0.26664 0.49013 0.0
C125 C 0.47169 0.25175 0.48414 0.0
C126 C 0.47499 0.23214 0.48230 0.0
C127 C 0.48415 0.28626 0.49232 0.0
C128 C 0.49992 0.30106 0.49845 0.0
C129 C 0.50232 0.14588 0.56103 0.0
C130 C 0.51041 0.13619 0.61637 0.0
C131 C 0.49113 0.12674 0.61849 0.0
C132 C 0.48590 0.11280 0.64577 0.0
C133 C 0.50000 0.10832 0.67078 0.0
C134 C 0.51927 0.11782 0.66867 0.0
C135 C 0.52448 0.13177 0.64143 0.0
C136 C 0.49490 0.09427 0.69790 0.0
C137 C 0.50914 0.08978 0.72258 0.0
O138 O 0.51478 0.14391 0.42044 0.0
O139 O 0.51576 0.14918 0.58872 0.0
O140 O 0.49715 0.20824 0.48571 0.0
H141 H 0.49127 0.09286 0.28694 0.0
H142 H 0.53469 0.09088 0.29422 0.0
H143 H 0.54980 0.10992 0.34562 0.0
H144 H 0.54694 0.13135 0.39789 0.0
H145 H 0.48655 0.12943 0.37655 0.0
H146 H 0.48940 0.10803 0.32434 0.0
H147 H 0.54271 0.15538 0.42719 0.0
H148 H 0.53567 0.13372 0.44925 0.0
H149 H 0.50892 0.12070 0.52506 0.0
H150 H 0.53180 0.12274 0.50744 0.0
H151 H 0.51211 0.12024 0.47928 0.0
H152 H 0.53544 0.17863 0.41813 0.0
H153 H 0.54927 0.19413 0.44682 0.0
H154 H 0.52703 0.19917 0.43342 0.0
H155 H 0.49493 0.17637 0.57531 0.0
H156 H 0.48956 0.19306 0.54426 0.0
H157 H 0.51087 0.19704 0.56783 0.0
H158 H 0.51968 0.21406 0.51954 0.0
H159 H 0.52555 0.21349 0.47454 0.0
H160 H 0.52378 0.23883 0.49512 0.0
H161 H 0.51804 0.27300 0.49828 0.0
H162 H 0.45762 0.25524 0.48117 0.0
H163 H 0.46337 0.22108 0.47802 0.0
H164 H 0.47010 0.28982 0.48946 0.0
H165 H 0.51395 0.29746 0.50130 0.0
H166 H 0.48921 0.15044 0.56869 0.0
H167 H 0.50006 0.13105 0.55456 0.0
H168 H 0.48077 0.12998 0.59975 0.0
H169 H 0.47164 0.10575 0.64738 0.0
H170 H 0.52968 0.11447 0.68721 0.0
H171 H 0.53877 0.13874 0.63968 0.0
H172 H 0.48065 0.08719 0.69967 0.0
H173 H 0.52338 0.09689 0.72071 0.0
C174 C 0.91550 0.50380 0.71998 0.0
C175 C 0.91008 0.48684 0.69907 0.0
C176 C 0.89765 0.48749 0.66899 0.0
C177 C 0.89206 0.47062 0.64788 0.0
C178 C 0.87958 0.47141 0.61787 0.0
C179 C 0.87270 0.48904 0.60911 0.0
C180 C 0.87833 0.50590 0.63014 0.0
C181 C 0.89080 0.50512 0.66010 0.0
C182 C 0.85869 0.47322 0.55884 0.0
C183 C 0.84814 0.47824 0.52860 0.0
C184 C 0.82770 0.47598 0.52982 0.0
C185 C 0.81744 0.48422 0.50223 0.0
C186 C 0.82737 0.49271 0.47163 0.0
C187 C 0.84771 0.49340 0.46908 0.0
C188 C 0.85810 0.48618 0.49764 0.0
C189 C 0.87858 0.48820 0.49641 0.0
C190 C 0.81771 0.46687 0.55987 0.0
C191 C 0.81701 0.50106 0.44425 0.0
C192 C 0.79727 0.48423 0.50529 0.0
C193 C 0.77534 0.50494 0.51359 0.0
C194 C 0.76147 0.48834 0.50789 0.0
C195 C 0.74155 0.49028 0.50604 0.0
C196 C 0.73555 0.50881 0.50988 0.0
C197 C 0.74944 0.52540 0.51586 0.0
C198 C 0.76935 0.52346 0.51771 0.0
C199 C 0.71564 0.51071 0.50768 0.0
C200 C 0.70185 0.49407 0.50155 0.0
C201 C 0.85782 0.50220 0.43902 0.0
C202 C 0.86810 0.49484 0.38369 0.0
C203 C 0.87628 0.51460 0.38156 0.0
C204 C 0.88993 0.52073 0.35428 0.0
C205 C 0.89538 0.50705 0.32928 0.0
C206 C 0.88715 0.48731 0.33139 0.0
C207 C 0.87349 0.48119 0.35862 0.0
C208 C 0.90914 0.51306 0.30216 0.0
C209 C 0.91461 0.49925 0.27748 0.0
O210 O 0.86065 0.48999 0.57961 0.0
O211 O 0.85542 0.48867 0.41133 0.0
O212 O 0.79486 0.50311 0.51431 0.0
H213 H 0.91031 0.51676 0.71311 0.0
H214 H 0.91524 0.47384 0.70585 0.0
H215 H 0.89715 0.45757 0.65445 0.0
H216 H 0.87544 0.45896 0.60218 0.0
H217 H 0.87327 0.51896 0.62350 0.0
H218 H 0.89495 0.51758 0.67572 0.0
H219 H 0.85103 0.46153 0.57287 0.0
H220 H 0.87229 0.46997 0.55081 0.0
H221 H 0.88355 0.49737 0.47500 0.0
H222 H 0.88306 0.47456 0.49262 0.0
H223 H 0.88424 0.49425 0.52078 0.0
H224 H 0.82719 0.46715 0.58192 0.0
H225 H 0.81255 0.45240 0.55322 0.0
H226 H 0.80599 0.47410 0.56662 0.0
H227 H 0.82670 0.50747 0.42473 0.0
H228 H 0.80958 0.51166 0.45577 0.0
H229 H 0.80703 0.49027 0.43220 0.0
H230 H 0.79054 0.48038 0.48049 0.0
H231 H 0.79151 0.47460 0.52549 0.0
H232 H 0.76594 0.47464 0.50490 0.0
H233 H 0.73125 0.47801 0.50174 0.0
H234 H 0.74498 0.53911 0.51884 0.0
H235 H 0.77968 0.53573 0.52200 0.0
H236 H 0.71112 0.52440 0.51054 0.0
H237 H 0.70641 0.48040 0.49871 0.0
H238 H 0.85235 0.51490 0.43135 0.0
H239 H 0.87256 0.50545 0.44549 0.0
H240 H 0.87232 0.52465 0.40029 0.0
H241 H 0.89604 0.53535 0.35267 0.0
H242 H 0.89122 0.47721 0.31285 0.0
H243 H 0.86747 0.46656 0.36038 0.0
H244 H 0.91529 0.52766 0.30039 0.0
H245 H 0.90844 0.48465 0.27936 0.0
C246 C 0.50453 0.91269 0.71998 0.0
C247 C 0.52120 0.91080 0.69920 0.0
C248 C 0.51970 0.89810 0.66911 0.0
C249 C 0.53625 0.89602 0.64814 0.0
C250 C 0.53462 0.88324 0.61813 0.0
C251 C 0.51645 0.87257 0.60922 0.0
C252 C 0.49990 0.87470 0.63011 0.0
C253 C 0.50153 0.88746 0.66007 0.0
C254 C 0.53139 0.86176 0.55907 0.0
C255 C 0.52563 0.85004 0.52879 0.0
C256 C 0.52651 0.82987 0.53002 0.0
C257 C 0.51754 0.81776 0.50236 0.0
C258 C 0.50969 0.82601 0.47169 0.0
C259 C 0.51038 0.84640 0.46914 0.0
C260 C 0.51833 0.85843 0.49777 0.0
C261 C 0.51769 0.87868 0.49652 0.0
C262 C 0.53499 0.82170 0.56014 0.0
C263 C 0.50061 0.81378 0.44424 0.0
C264 C 0.51617 0.79739 0.50541 0.0
C265 C 0.49389 0.77087 0.51354 0.0
C266 C 0.50961 0.76035 0.50797 0.0
C267 C 0.50632 0.73983 0.50609 0.0
C268 C 0.48730 0.72986 0.50978 0.0
C269 C 0.47159 0.74038 0.51563 0.0
C270 C 0.47489 0.76091 0.51750 0.0
C271 C 0.48405 0.70934 0.50756 0.0
C272 C 0.49982 0.69892 0.50156 0.0
C273 C 0.50222 0.85476 0.43901 0.0
C274 C 0.51031 0.86670 0.38374 0.0
C275 C 0.49103 0.87079 0.38145 0.0
C276 C 0.48580 0.88328 0.35413 0.0
C277 C 0.49990 0.89168 0.32924 0.0
C278 C 0.51917 0.88753 0.33152 0.0
C279 C 0.52438 0.87503 0.35879 0.0
C280 C 0.49480 0.90431 0.30208 0.0
C281 C 0.50904 0.91275 0.27752 0.0
O282 O 0.51468 0.86020 0.57971 0.0
O283 O 0.51565 0.85520 0.41143 0.0
O284 O 0.49704 0.79097 0.51428 0.0
H285 H 0.49116 0.90471 0.71300 0.0
H286 H 0.53459 0.91876 0.70610 0.0
H287 H 0.54970 0.90391 0.65482 0.0
H288 H 0.54684 0.88169 0.60253 0.0
H289 H 0.48645 0.86683 0.62336 0.0
H290 H 0.48930 0.88902 0.67559 0.0
H291 H 0.54261 0.85649 0.57320 0.0
H292 H 0.53557 0.87619 0.55107 0.0
H293 H 0.50882 0.88177 0.47504 0.0
H294 H 0.53169 0.88610 0.49285 0.0
H295 H 0.51201 0.88313 0.52084 0.0
H296 H 0.53534 0.83122 0.58219 0.0
H297 H 0.54916 0.81955 0.55362 0.0
H298 H 0.52693 0.80834 0.56683 0.0
H299 H 0.49483 0.82222 0.42467 0.0
H300 H 0.48946 0.80404 0.45567 0.0
H301 H 0.51076 0.80597 0.43228 0.0
H302 H 0.51958 0.79140 0.48064 0.0
H303 H 0.52545 0.79361 0.52569 0.0
H304 H 0.52368 0.76777 0.50510 0.0
H305 H 0.51794 0.73201 0.50189 0.0
H306 H 0.45752 0.73299 0.51849 0.0
H307 H 0.46327 0.76874 0.52169 0.0
H308 H 0.47000 0.70188 0.51031 0.0
H309 H 0.51385 0.70642 0.49884 0.0
H310 H 0.48911 0.84656 0.43124 0.0
H311 H 0.49996 0.86897 0.44546 0.0
H312 H 0.48067 0.86467 0.40010 0.0
H313 H 0.47154 0.88637 0.35239 0.0
H314 H 0.52958 0.89378 0.31306 0.0
H315 H 0.53866 0.87203 0.36067 0.0
H316 H 0.48055 0.90744 0.30018 0.0
H317 H 0.52328 0.90960 0.27951 0.0
C318 C 0.40807 0.49852 0.50008 0.0
N319 N 0.39597 0.48048 0.50281 0.0
N320 N 0.37559 0.47983 0.50280 0.0
C321 C 0.36730 0.49723 0.50004 0.0
N322 N 0.37939 0.51531 0.49730 0.0
N323 N 0.39979 0.51596 0.49731 0.0
C324 C 0.42846 0.49914 0.50009 0.0
C325 C 0.44887 0.49996 0.50006 0.0
C326 C 0.34690 0.49643 0.50005 0.0
C327 C 0.32649 0.49552 0.50007 0.0
C328 C 0.50089 0.40699 0.50008 0.0
N329 N 0.51820 0.39848 0.50020 0.0
N330 N 0.51736 0.37803 0.50020 0.0
C331 C 0.49922 0.36605 0.50008 0.0
N332 N 0.48188 0.37454 0.49996 0.0
N333 N 0.48271 0.39502 0.49996 0.0
C334 C 0.50176 0.42747 0.50007 0.0
C335 C 0.50241 0.44792 0.50006 0.0
C336 C 0.49854 0.34560 0.50008 0.0
C337 C 0.49796 0.32517 0.50008 0.0
C338 C 0.59689 0.49864 0.49995 0.0
N339 N 0.60404 0.48055 0.49964 0.0
N340 N 0.62424 0.47994 0.49963 0.0
C341 C 0.63732 0.49742 0.49994 0.0
N342 N 0.63019 0.51555 0.50026 0.0
N343 N 0.60997 0.51616 0.50027 0.0
C344 C 0.57667 0.49922 0.49997 0.0
C345 C 0.55648 0.50001 0.49999 0.0
C346 C 0.65751 0.49666 0.49993 0.0
C347 C 0.67767 0.49579 0.49992 0.0
C348 C 0.50092 0.59328 0.49999 0.0
N349 N 0.48288 0.60043 0.50000 0.0
N350 N 0.48225 0.62069 0.49999 0.0
C351 C 0.49967 0.63382 0.49996 0.0
N352 N 0.51775 0.62669 0.49995 0.0
N353 N 0.51838 0.60641 0.49996 0.0
C354 C 0.50152 0.57299 0.50000 0.0
C355 C 0.50232 0.55275 0.50000 0.0
C356 C 0.49889 0.65407 0.49994 0.0
C357 C 0.49801 0.67429 0.49993 0.0
H358 H 0.00776 0.50280 0.92771 0.0
H359 H 0.04047 0.50511 0.92936 0.0
H360 H 0.02483 0.49932 0.87529 0.0
H361 H 0.09264 0.49470 0.77204 0.0
H362 H 0.05993 0.49239 0.77040 0.0
H363 H 0.07556 0.49818 0.82446 0.0
H364 H 0.09432 0.51781 0.76505 0.0
H365 H 0.06161 0.51551 0.76340 0.0
H366 H 0.07725 0.52130 0.81746 0.0
H367 H 0.00944 0.52592 0.92071 0.0
H368 H 0.04215 0.52822 0.92236 0.0
H369 H 0.02652 0.52243 0.86830 0.0
C370 C 0.01576 0.51557 0.93261 0.0
C371 C 0.03393 0.51544 0.91744 0.0
C372 C 0.03292 0.51209 0.88015 0.0
C373 C 0.05151 0.51199 0.86515 0.0
C374 C 0.08632 0.50504 0.76015 0.0
C375 C 0.06814 0.50518 0.77531 0.0
C376 C 0.06916 0.50853 0.81260 0.0
C377 C 0.05057 0.50862 0.82761 0.0
H378 H 0.53617 0.03412 0.94685 0.0
H379 H 0.50566 0.03672 0.92834 0.0
H380 H 0.53119 0.04980 0.89345 0.0
H381 H 0.48987 0.08389 0.76750 0.0
H382 H 0.52037 0.08128 0.78602 0.0
H383 H 0.49485 0.06820 0.82090 0.0
H384 H 0.48901 0.06356 0.74591 0.0
H385 H 0.51951 0.06095 0.76443 0.0
H386 H 0.49399 0.04788 0.79932 0.0
H387 H 0.53531 0.01379 0.92527 0.0
H388 H 0.50481 0.01640 0.90675 0.0
H389 H 0.53033 0.02948 0.87186 0.0
C390 C 0.52741 0.02236 0.93860 0.0
C391 C 0.51376 0.02814 0.91511 0.0
C392 C 0.52236 0.03807 0.88512 0.0
C393 C 0.50830 0.04384 0.86151 0.0
C394 C 0.49777 0.07531 0.75416 0.0
C395 C 0.51141 0.06954 0.77765 0.0
C396 C 0.50282 0.05961 0.80765 0.0
C397 C 0.51688 0.05384 0.83126 0.0
H398 H 0.00010 0.50596 0.07513 0.0
H399 H 0.96793 0.50282 0.07229 0.0
H400 H 0.98260 0.50227 0.12747 0.0
H401 H 0.91278 0.49165 0.22933 0.0
H402 H 0.94552 0.49480 0.23217 0.0
H403 H 0.93085 0.49534 0.17699 0.0
H404 H 0.91372 0.51496 0.23238 0.0
H405 H 0.94645 0.51810 0.23522 0.0
H406 H 0.93179 0.51865 0.18004 0.0
H407 H 0.00161 0.52927 0.07818 0.0
H408 H 0.96887 0.52612 0.07534 0.0
H409 H 0.98354 0.52558 0.13051 0.0
C410 C 0.99412 0.51724 0.06791 0.0
C411 C 0.97564 0.51487 0.08258 0.0
C412 C 0.97596 0.51354 0.12029 0.0
C413 C 0.95707 0.51114 0.13478 0.0
C414 C 0.92027 0.50369 0.23960 0.0
C415 C 0.93875 0.50605 0.22493 0.0
C416 C 0.93842 0.50738 0.18722 0.0
C417 C 0.95732 0.50978 0.17273 0.0
H418 H 0.50322 0.99431 0.07044 0.0
H419 H 0.53030 0.98630 0.09700 0.0
H420 H 0.50101 0.97739 0.12420 0.0
H421 H 0.52442 0.93528 0.25913 0.0
H422 H 0.49734 0.94329 0.23257 0.0
H423 H 0.52663 0.95220 0.20537 0.0
H424 H 0.52185 0.91501 0.23706 0.0
H425 H 0.49477 0.92302 0.21050 0.0
H426 H 0.52406 0.93193 0.18330 0.0
H427 H 0.50064 0.97404 0.04837 0.0
H428 H 0.52773 0.96603 0.07492 0.0
H429 H 0.49844 0.95712 0.10213 0.0
C430 C 0.51033 0.98434 0.05920 0.0
C431 C 0.52044 0.97605 0.08600 0.0
C432 C 0.50818 0.96739 0.11306 0.0
C433 C 0.51868 0.95903 0.14009 0.0
C434 C 0.51474 0.92498 0.24830 0.0
C435 C 0.50463 0.93327 0.22150 0.0
C436 C 0.51689 0.94193 0.19443 0.0
C437 C 0.50639 0.95029 0.16740 0.0
H438 H 0.53674 0.01601 0.07332 0.0
H439 H 0.50634 0.01544 0.09508 0.0
H440 H 0.53177 0.03156 0.12695 0.0
H441 H 0.49056 0.06210 0.25669 0.0
H442 H 0.52096 0.06268 0.23492 0.0
H443 H 0.49553 0.04655 0.20306 0.0
H444 H 0.48843 0.08177 0.23477 0.0
H445 H 0.51883 0.08235 0.21301 0.0
H446 H 0.49341 0.06623 0.18114 0.0
H447 H 0.53462 0.03569 0.05141 0.0
H448 H 0.50421 0.03511 0.07317 0.0
H449 H 0.52964 0.05124 0.10504 0.0
C450 C 0.52738 0.02333 0.06075 0.0
C451 C 0.51378 0.02780 0.08560 0.0
C452 C 0.52233 0.03889 0.11447 0.0
C453 C 0.50831 0.04331 0.13949 0.0
C454 C 0.49780 0.07446 0.24734 0.0
C455 C 0.51140 0.06999 0.22249 0.0
C456 C 0.50284 0.05889 0.19362 0.0
C457 C 0.51686 0.05448 0.16861 0.0
H458 H 0.00818 0.52361 0.08006 0.0
H459 H 0.04095 0.52937 0.07991 0.0
H460 H 0.02527 0.52028 0.13261 0.0
H461 H 0.09319 0.51955 0.23769 0.0
H462 H 0.06041 0.51379 0.23783 0.0
H463 H 0.07609 0.52288 0.18513 0.0
H464 H 0.09401 0.49700 0.22802 0.0
H465 H 0.06124 0.49124 0.22817 0.0
H466 H 0.07692 0.50032 0.17547 0.0
H467 H 0.00900 0.50105 0.07039 0.0
H468 H 0.04178 0.50682 0.07024 0.0
H469 H 0.02610 0.49773 0.12295 0.0
C470 C 0.01577 0.51455 0.06725 0.0
C471 C 0.03397 0.51584 0.08306 0.0
C472 C 0.03295 0.51123 0.11985 0.0
C473 C 0.05157 0.51261 0.13552 0.0
C474 C 0.08642 0.50606 0.24083 0.0
C475 C 0.06822 0.50477 0.22502 0.0
C476 C 0.06924 0.50937 0.18823 0.0
C477 C 0.05062 0.50799 0.17256 0.0
H478 H 0.00199 0.52851 0.92170 0.0
H479 H 0.96933 0.52668 0.92412 0.0
H480 H 0.98391 0.52489 0.86921 0.0
H481 H 0.91414 0.51574 0.76662 0.0
H482 H 0.94680 0.51757 0.76420 0.0
H483 H 0.93222 0.51937 0.81911 0.0
H484 H 0.91229 0.49240 0.77047 0.0
H485 H 0.94495 0.49424 0.76805 0.0
H486 H 0.93037 0.49603 0.82296 0.0
H487 H 0.00010 0.50517 0.92555 0.0
H488 H 0.96748 0.50334 0.92797 0.0
H489 H 0.98206 0.50155 0.87306 0.0
C490 C 0.99407 0.51685 0.93227 0.0
C491 C 0.97561 0.51502 0.91739 0.0
C492 C 0.97590 0.51321 0.87974 0.0
C493 C 0.95703 0.51137 0.86503 0.0
C494 C 0.92021 0.50407 0.75990 0.0
C495 C 0.93866 0.50589 0.77478 0.0
C496 C 0.93838 0.50771 0.81243 0.0
C497 C 0.95725 0.50955 0.82714 0.0
H498 H 0.50294 0.97125 0.95429 0.0
H499 H 0.53008 0.96826 0.92249 0.0
H500 H 0.50074 0.95455 0.90014 0.0
H501 H 0.52421 0.91806 0.75906 0.0
H502 H 0.49707 0.92104 0.79086 0.0
H503 H 0.52642 0.93475 0.81320 0.0
H504 H 0.52212 0.93796 0.73788 0.0
H505 H 0.49498 0.94095 0.76968 0.0
H506 H 0.52433 0.95466 0.79203 0.0
H507 H 0.50085 0.99115 0.93311 0.0
H508 H 0.52799 0.98817 0.90132 0.0
H509 H 0.49864 0.97446 0.87897 0.0
C510 C 0.51031 0.98283 0.94240 0.0
C511 C 0.52045 0.97660 0.91340 0.0
C512 C 0.50816 0.96611 0.88814 0.0
C513 C 0.51869 0.95989 0.85884 0.0
C514 C 0.51475 0.92638 0.74977 0.0
C515 C 0.50462 0.93261 0.77877 0.0
C516 C 0.51690 0.94310 0.80403 0.0
C517 C 0.50638 0.94932 0.83333 0.0
