data_{}
_symmetry_space_group_name_H-M    P1
_symmetry_Int_Tables_number       1
_symmetry_cell_setting            triclinic
loop_
_symmetry_equiv_pos_as_xyz
'x, y, z'
_cell_length_a     50.705
_cell_length_b     48.513
_cell_length_c     54.625
_cell_angle_alpha  89.216
_cell_angle_beta   91.171
_cell_angle_gamma  89.414
loop_
_atom_site_label
_atom_site_type_symbol
_atom_site_fract_x
_atom_site_fract_y
_atom_site_fract_z
_atom_type_partial_charge
H0 H 0.01392 0.06760 0.02690 0.0
H1 H 0.99308 0.06090 0.00610 0.0
C2 C 0.04447 0.05464 0.99092 0.0
C3 C 0.02621 0.03546 0.00501 0.0
H4 H 0.03209 0.00398 0.03074 0.0
H5 H 0.05773 0.01018 0.01592 0.0
C6 C 0.01223 0.01583 0.98743 0.0
O7 O 0.02942 0.06616 0.97074 0.0
C8 C 0.00551 0.05283 0.01796 0.0
O9 O 0.03201 0.00382 0.97246 0.0
O10 O 0.99212 0.03485 0.03445 0.0
H11 H 0.05955 0.04440 0.98504 0.0
H12 H 0.05081 0.06918 0.00146 0.0
O13 O 0.05130 0.03700 0.04237 0.0
C14 C 0.04265 0.01853 0.02372 0.0
H15 H 0.99990 0.02584 0.97734 0.0
H16 H 0.00323 0.00156 0.99654 0.0
Si17 Si 0.53220 0.53529 0.51250 0.0
C18 C 0.59223 0.55426 0.56214 0.0
C19 C 0.51007 0.59281 0.45872 0.0
C20 C 0.51159 0.56974 0.47417 0.0
C21 C 0.53250 0.56620 0.49165 0.0
C22 C 0.55226 0.58596 0.49200 0.0
C23 C 0.55114 0.60865 0.47605 0.0
C24 C 0.53007 0.61212 0.45985 0.0
C25 C 0.50811 0.46399 0.47659 0.0
C26 C 0.50973 0.48538 0.49319 0.0
C27 C 0.52920 0.50498 0.49170 0.0
C28 C 0.54758 0.50296 0.47291 0.0
C29 C 0.54648 0.48185 0.45628 0.0
C30 C 0.52698 0.46235 0.45796 0.0
H31 H 0.62900 0.53820 0.56370 0.0
C32 C 0.46144 0.56033 0.54237 0.0
C33 C 0.45669 0.54010 0.55974 0.0
C34 C 0.47440 0.51865 0.56356 0.0
C35 C 0.49706 0.51750 0.55008 0.0
C36 C 0.50258 0.53748 0.53240 0.0
H37 H 0.52923 0.62759 0.44958 0.0
C38 C 0.48420 0.55858 0.52887 0.0
H39 H 0.49864 0.55638 0.47302 0.0
H40 H 0.52624 0.44809 0.44681 0.0
H41 H 0.44146 0.54099 0.56889 0.0
C42 C 0.61265 0.53695 0.55574 0.0
H43 H 0.56640 0.58396 0.50302 0.0
H44 H 0.49746 0.48652 0.50556 0.0
H45 H 0.56074 0.51610 0.47165 0.0
C46 C 0.60892 0.51748 0.53731 0.0
C47 C 0.58470 0.51652 0.52490 0.0
C48 C 0.56345 0.53405 0.53097 0.0
C49 C 0.56810 0.55234 0.54975 0.0
H50 H 0.50897 0.50302 0.55284 0.0
H51 H 0.48731 0.57206 0.51702 0.0
H52 H 0.58246 0.50403 0.51228 0.0
H53 H 0.55441 0.56397 0.55432 0.0
C54 C 0.88112 0.41880 0.73119 0.0
C55 C 0.89405 0.39126 0.72410 0.0
C56 C 0.92227 0.38423 0.73326 0.0
C57 C 0.93552 0.35680 0.72626 0.0
C58 C 0.96380 0.35000 0.73546 0.0
C59 C 0.97875 0.37066 0.75159 0.0
C60 C 0.96548 0.39802 0.75864 0.0
C61 C 0.93725 0.40481 0.74946 0.0
C62 C 0.01474 0.33489 0.75556 0.0
C63 C 0.04123 0.33198 0.76945 0.0
C64 C 0.06674 0.34118 0.75716 0.0
C65 C 0.09227 0.34326 0.77268 0.0
C66 C 0.09303 0.33300 0.79950 0.0
C67 C 0.06797 0.32133 0.81103 0.0
C68 C 0.04203 0.32087 0.79598 0.0
C69 C 0.01645 0.31137 0.80809 0.0
C70 C 0.06619 0.35046 0.73003 0.0
C71 C 0.11862 0.33537 0.81496 0.0
C72 C 0.11702 0.35592 0.76158 0.0
C73 C 0.14493 0.39692 0.76493 0.0
C74 C 0.16268 0.38192 0.74677 0.0
C75 C 0.18936 0.39435 0.73983 0.0
C76 C 0.19823 0.42176 0.75107 0.0
C77 C 0.18035 0.43688 0.76909 0.0
C78 C 0.15367 0.42444 0.77603 0.0
C79 C 0.22504 0.43397 0.74426 0.0
C80 C 0.24285 0.41867 0.72631 0.0
C81 C 0.06833 0.31161 0.83795 0.0
C82 C 0.07630 0.27009 0.86324 0.0
C83 C 0.06949 0.28821 0.88518 0.0
C84 C 0.06379 0.27468 0.91014 0.0
C85 C 0.06485 0.24307 0.91304 0.0
C86 C 0.07173 0.22498 0.89109 0.0
C87 C 0.07747 0.23851 0.86616 0.0
C88 C 0.05892 0.22941 0.93787 0.0
C89 C 0.05981 0.19778 0.94050 0.0
O90 O 0.00629 0.36406 0.76090 0.0
O91 O 0.08060 0.28319 0.83852 0.0
O92 O 0.11923 0.38429 0.77233 0.0
H93 H 0.89246 0.43386 0.74319 0.0
H94 H 0.88279 0.37615 0.71211 0.0
H95 H 0.92443 0.34156 0.71428 0.0
H96 H 0.97364 0.32970 0.73035 0.0
H97 H 0.97657 0.41322 0.77068 0.0
H98 H 0.92742 0.42508 0.75463 0.0
H99 H 0.01726 0.33197 0.73506 0.0
H100 H 0.99990 0.31956 0.76314 0.0
H101 H 0.01999 0.30916 0.82870 0.0
H102 H 0.01021 0.29069 0.80032 0.0
H103 H 0.00010 0.32738 0.80423 0.0
H104 H 0.04514 0.35632 0.72416 0.0
H105 H 0.07340 0.33272 0.71832 0.0
H106 H 0.07961 0.36891 0.72741 0.0
H107 H 0.11493 0.32816 0.83453 0.0
H108 H 0.12509 0.35780 0.81498 0.0
H109 H 0.13476 0.32207 0.80673 0.0
H110 H 0.13511 0.34292 0.76702 0.0
H111 H 0.11489 0.35742 0.74078 0.0
H112 H 0.15612 0.36156 0.73855 0.0
H113 H 0.20258 0.38325 0.72643 0.0
H114 H 0.18688 0.45723 0.77733 0.0
H115 H 0.14043 0.43553 0.78945 0.0
H116 H 0.23170 0.45428 0.75250 0.0
H117 H 0.23613 0.39837 0.71809 0.0
H118 H 0.08030 0.32611 0.84997 0.0
H119 H 0.04720 0.31051 0.84466 0.0
H120 H 0.06851 0.31158 0.88290 0.0
H121 H 0.05869 0.28803 0.92642 0.0
H122 H 0.07249 0.20158 0.89330 0.0
H123 H 0.08240 0.22516 0.84984 0.0
H124 H 0.05384 0.24265 0.95424 0.0
H125 H 0.06488 0.18462 0.92409 0.0
C126 C 0.66796 0.88239 0.28682 0.0
C127 C 0.69016 0.89927 0.29886 0.0
C128 C 0.70145 0.92428 0.28513 0.0
C129 C 0.72372 0.94132 0.29689 0.0
C130 C 0.73494 0.96627 0.28296 0.0
C131 C 0.72389 0.97408 0.25732 0.0
C132 C 0.70159 0.95710 0.24562 0.0
C133 C 0.69039 0.93219 0.25952 0.0
C134 C 0.75321 0.01538 0.25915 0.0
C135 C 0.75833 0.04065 0.24283 0.0
C136 C 0.78020 0.03957 0.22378 0.0
C137 C 0.78182 0.06275 0.20440 0.0
C138 C 0.76382 0.08842 0.20590 0.0
C139 C 0.74363 0.09056 0.22647 0.0
C140 C 0.74086 0.06661 0.24493 0.0
C141 C 0.71919 0.06769 0.26425 0.0
C142 C 0.79888 0.01434 0.22287 0.0
C143 C 0.76542 0.11141 0.18630 0.0
C144 C 0.80115 0.06021 0.18327 0.0
C145 C 0.80145 0.05392 0.13867 0.0
C146 C 0.83138 0.05817 0.14149 0.0
C147 C 0.84854 0.05977 0.11860 0.0
C148 C 0.83573 0.05712 0.09295 0.0
C149 C 0.80580 0.05264 0.09017 0.0
C150 C 0.78865 0.05105 0.11305 0.0
C151 C 0.85294 0.05901 0.07012 0.0
C152 C 0.88283 0.06361 0.07306 0.0
C153 C 0.72513 0.11579 0.22783 0.0
C154 C 0.72270 0.16155 0.24624 0.0
C155 C 0.69507 0.16390 0.23415 0.0
C156 C 0.67587 0.18674 0.24201 0.0
C157 C 0.68435 0.20711 0.26199 0.0
C158 C 0.71202 0.20477 0.27401 0.0
C159 C 0.73121 0.18197 0.26613 0.0
C160 C 0.66516 0.22982 0.27010 0.0
C161 C 0.67377 0.24991 0.29024 0.0
O162 O 0.73452 0.99862 0.24369 0.0
O163 O 0.74102 0.13840 0.23944 0.0
O164 O 0.78455 0.05327 0.16102 0.0
H165 H 0.65997 0.88848 0.26783 0.0
H166 H 0.69821 0.89324 0.31785 0.0
H167 H 0.73190 0.93547 0.31586 0.0
H168 H 0.75139 0.97895 0.29163 0.0
H169 H 0.69338 0.96301 0.22667 0.0
H170 H 0.67391 0.91958 0.25085 0.0
H171 H 0.77226 0.00338 0.26335 0.0
H172 H 0.74342 0.02195 0.27678 0.0
H173 H 0.70526 0.08575 0.25986 0.0
H174 H 0.72856 0.07043 0.28321 0.0
H175 H 0.70769 0.04762 0.26388 0.0
H176 H 0.78948 0.99603 0.23252 0.0
H177 H 0.81832 0.01943 0.23259 0.0
H178 H 0.80287 0.00894 0.20304 0.0
H179 H 0.74972 0.12782 0.18973 0.0
H180 H 0.76192 0.10216 0.16745 0.0
H181 H 0.78581 0.12111 0.18711 0.0
H182 H 0.81149 0.08070 0.18023 0.0
H183 H 0.81630 0.04313 0.18733 0.0
H184 H 0.84080 0.06024 0.16049 0.0
H185 H 0.87071 0.06298 0.12064 0.0
H186 H 0.79635 0.05058 0.07117 0.0
H187 H 0.76646 0.04785 0.11104 0.0
H188 H 0.84357 0.05704 0.05108 0.0
H189 H 0.89214 0.06556 0.09213 0.0
H190 H 0.71768 0.12254 0.20883 0.0
H191 H 0.70774 0.11051 0.23988 0.0
H192 H 0.68879 0.14863 0.21952 0.0
H193 H 0.65537 0.18852 0.23314 0.0
H194 H 0.71823 0.21988 0.28881 0.0
H195 H 0.75164 0.18008 0.27511 0.0
H196 H 0.64465 0.23173 0.26127 0.0
H197 H 0.69430 0.24792 0.29904 0.0
C198 C 0.82874 0.67479 0.72619 0.0
C199 C 0.84227 0.66337 0.74976 0.0
C200 C 0.87036 0.67262 0.75673 0.0
C201 C 0.88419 0.66131 0.78022 0.0
C202 C 0.91233 0.67064 0.78699 0.0
C203 C 0.92656 0.69120 0.77025 0.0
C204 C 0.91270 0.70256 0.74684 0.0
C205 C 0.88461 0.69324 0.74007 0.0
C206 C 0.96297 0.69102 0.80206 0.0
C207 C 0.98915 0.70609 0.80586 0.0
C208 C 0.01484 0.69337 0.79644 0.0
C209 C 0.03994 0.71088 0.79600 0.0
C210 C 0.04015 0.73962 0.80766 0.0
C211 C 0.01497 0.75117 0.81919 0.0
C212 C 0.98943 0.73439 0.81825 0.0
C213 C 0.96368 0.74687 0.82792 0.0
C214 C 0.01485 0.66417 0.78562 0.0
C215 C 0.06531 0.75710 0.80696 0.0
C216 C 0.06478 0.69994 0.78364 0.0
C217 C 0.09199 0.70867 0.74764 0.0
C218 C 0.11043 0.68640 0.75905 0.0
C219 C 0.13710 0.68007 0.74728 0.0
C220 C 0.14527 0.69602 0.72413 0.0
C221 C 0.12670 0.71815 0.71261 0.0
C222 C 0.10003 0.72448 0.72438 0.0
C223 C 0.17208 0.68981 0.71257 0.0
C224 C 0.19058 0.66774 0.72427 0.0
C225 C 0.01478 0.78009 0.83038 0.0
C226 C 0.02272 0.80318 0.86947 0.0
C227 C 0.01507 0.83002 0.85563 0.0
C228 C 0.00893 0.85629 0.87002 0.0
C229 C 0.01038 0.85560 0.89821 0.0
C230 C 0.01810 0.82875 0.91201 0.0
C231 C 0.02428 0.80251 0.89763 0.0
C232 C 0.00401 0.88171 0.91270 0.0
C233 C 0.00530 0.88071 0.94088 0.0
O234 O 0.95395 0.70068 0.77687 0.0
O235 O 0.02746 0.77713 0.85548 0.0
O236 O 0.06629 0.71549 0.75962 0.0
H237 H 0.83955 0.69005 0.71401 0.0
H238 H 0.83154 0.64811 0.76199 0.0
H239 H 0.87364 0.64605 0.79256 0.0
H240 H 0.92261 0.66234 0.80438 0.0
H241 H 0.92325 0.71787 0.73454 0.0
H242 H 0.87434 0.70160 0.72272 0.0
H243 H 0.96607 0.66771 0.80264 0.0
H244 H 0.94825 0.69766 0.81640 0.0
H245 H 0.96672 0.76964 0.83186 0.0
H246 H 0.95795 0.73562 0.84545 0.0
H247 H 0.94732 0.74462 0.81348 0.0
H248 H 0.99386 0.65842 0.77996 0.0
H249 H 0.02262 0.64883 0.80011 0.0
H250 H 0.02806 0.66348 0.76901 0.0
H251 H 0.06122 0.77813 0.81524 0.0
H252 H 0.07144 0.75990 0.78712 0.0
H253 H 0.08185 0.74616 0.81783 0.0
H254 H 0.08292 0.70433 0.79557 0.0
H255 H 0.06317 0.67686 0.78030 0.0
H256 H 0.10439 0.67470 0.77625 0.0
H257 H 0.15083 0.66363 0.75572 0.0
H258 H 0.13272 0.72988 0.69542 0.0
H259 H 0.08629 0.74094 0.71595 0.0
H260 H 0.17823 0.70154 0.69542 0.0
H261 H 0.18437 0.65604 0.74141 0.0
H262 H 0.02623 0.79530 0.81870 0.0
H263 H 0.99350 0.78755 0.83210 0.0
H264 H 0.01380 0.83039 0.83477 0.0
H265 H 0.00321 0.87620 0.85983 0.0
H266 H 0.01915 0.82830 0.93288 0.0
H267 H 0.02982 0.78256 0.90780 0.0
H268 H 0.99832 0.90169 0.90262 0.0
H269 H 0.01100 0.86068 0.95088 0.0
C270 C 0.38547 0.81996 0.27777 0.0
C271 C 0.35933 0.83358 0.28527 0.0
C272 C 0.35248 0.86306 0.27629 0.0
C273 C 0.32644 0.87701 0.28369 0.0
C274 C 0.31981 0.90654 0.27466 0.0
C275 C 0.33923 0.92205 0.25830 0.0
C276 C 0.36519 0.90808 0.25084 0.0
C277 C 0.37182 0.87859 0.25986 0.0
C278 C 0.30504 0.95974 0.25492 0.0
C279 C 0.30201 0.98739 0.24114 0.0
C280 C 0.31117 0.01407 0.25338 0.0
C281 C 0.31287 0.04069 0.23791 0.0
C282 C 0.30244 0.04140 0.21122 0.0
C283 C 0.29093 0.01520 0.19977 0.0
C284 C 0.29077 0.98815 0.21475 0.0
C285 C 0.28132 0.96139 0.20269 0.0
C286 C 0.32068 0.01356 0.28039 0.0
C287 C 0.30442 0.06808 0.19581 0.0
C288 C 0.32532 0.06656 0.24892 0.0
C289 C 0.36454 0.09560 0.24510 0.0
C290 C 0.35067 0.11426 0.26352 0.0
C291 C 0.36280 0.14214 0.27037 0.0
C292 C 0.38878 0.15129 0.25880 0.0
C293 C 0.40276 0.13249 0.24052 0.0
C294 C 0.39062 0.10462 0.23367 0.0
C295 C 0.40070 0.17930 0.26553 0.0
C296 C 0.38653 0.19803 0.28373 0.0
C297 C 0.28101 0.01550 0.17297 0.0
C298 C 0.24073 0.02385 0.14826 0.0
C299 C 0.25752 0.01660 0.12605 0.0
C300 C 0.24398 0.01059 0.10126 0.0
C301 C 0.21368 0.01177 0.09877 0.0
C302 C 0.19693 0.01909 0.12099 0.0
C303 C 0.21046 0.02514 0.14576 0.0
C304 C 0.20003 0.00551 0.07410 0.0
C305 C 0.16972 0.00651 0.07189 0.0
O306 O 0.33279 0.95081 0.24915 0.0
O307 O 0.25385 0.02840 0.17282 0.0
O308 O 0.35221 0.06875 0.23780 0.0
H309 H 0.39962 0.83173 0.26560 0.0
H310 H 0.34512 0.82189 0.29743 0.0
H311 H 0.31211 0.86550 0.29584 0.0
H312 H 0.30054 0.91690 0.28008 0.0
H313 H 0.37949 0.91958 0.23864 0.0
H314 H 0.39106 0.86825 0.25439 0.0
H315 H 0.30274 0.96246 0.27546 0.0
H316 H 0.29016 0.94433 0.24750 0.0
H317 H 0.27873 0.96503 0.18212 0.0
H318 H 0.26170 0.95496 0.21072 0.0
H319 H 0.29668 0.94441 0.20629 0.0
H320 H 0.32636 0.99157 0.28613 0.0
H321 H 0.30401 0.02119 0.29236 0.0
H322 H 0.33843 0.02756 0.28281 0.0
H323 H 0.29705 0.06417 0.17631 0.0
H324 H 0.32589 0.07478 0.19551 0.0
H325 H 0.29194 0.08501 0.20427 0.0
H326 H 0.31281 0.08548 0.24370 0.0
H327 H 0.32723 0.06441 0.26969 0.0
H328 H 0.33137 0.10750 0.27199 0.0
H329 H 0.35253 0.15603 0.28397 0.0
H330 H 0.42205 0.13924 0.23202 0.0
H331 H 0.40087 0.09071 0.22006 0.0
H332 H 0.41994 0.18618 0.25703 0.0
H333 H 0.36729 0.19108 0.29220 0.0
H334 H 0.29463 0.02793 0.16080 0.0
H335 H 0.27974 0.99340 0.16622 0.0
H336 H 0.27993 0.01552 0.12802 0.0
H337 H 0.25636 0.00516 0.08478 0.0
H338 H 0.17450 0.01993 0.11910 0.0
H339 H 0.19809 0.03039 0.16227 0.0
H340 H 0.21229 0.00010 0.05754 0.0
H341 H 0.15753 0.01191 0.08850 0.0
C342 C 0.67230 0.46324 0.56845 0.0
C343 C 0.68237 0.48424 0.58725 0.0
C344 C 0.66957 0.51311 0.58825 0.0
C345 C 0.64672 0.52100 0.57043 0.0
C346 C 0.63665 0.50001 0.55162 0.0
C347 C 0.64944 0.47112 0.55063 0.0
C348 C 0.70528 0.47638 0.60501 0.0
C349 C 0.72822 0.46856 0.62277 0.0
C350 C 0.75118 0.46077 0.64049 0.0
C351 C 0.77418 0.45301 0.65820 0.0
C352 C 0.79720 0.44526 0.67588 0.0
C353 C 0.80756 0.46649 0.69434 0.0
C354 C 0.83065 0.45880 0.71196 0.0
C355 C 0.84336 0.42987 0.71113 0.0
C356 C 0.83297 0.40863 0.69268 0.0
C357 C 0.80989 0.41633 0.67506 0.0
H358 H 0.68176 0.44186 0.56772 0.0
H359 H 0.67702 0.52865 0.60218 0.0
H360 H 0.63725 0.54238 0.57117 0.0
H361 H 0.64198 0.45558 0.53671 0.0
H362 H 0.79816 0.48791 0.69495 0.0
H363 H 0.83834 0.47452 0.72561 0.0
H364 H 0.84237 0.38722 0.69208 0.0
H365 H 0.80220 0.40061 0.66141 0.0
C366 C 0.59163 0.45985 0.40976 0.0
C367 C 0.58300 0.42980 0.41367 0.0
C368 C 0.56372 0.42256 0.43415 0.0
C369 C 0.55309 0.44537 0.45074 0.0
C370 C 0.56173 0.47542 0.44684 0.0
C371 C 0.58100 0.48267 0.42635 0.0
C372 C 0.59370 0.40697 0.39714 0.0
C373 C 0.60442 0.38413 0.38063 0.0
C374 C 0.61516 0.36126 0.36416 0.0
C375 C 0.62594 0.33838 0.34773 0.0
C376 C 0.63673 0.31549 0.33132 0.0
C377 C 0.62847 0.28537 0.33558 0.0
C378 C 0.63935 0.26246 0.31924 0.0
C379 C 0.65848 0.26966 0.29863 0.0
C380 C 0.66672 0.29979 0.29436 0.0
C381 C 0.65584 0.32270 0.31070 0.0
H382 H 0.60589 0.46522 0.39459 0.0
H383 H 0.55733 0.40031 0.43704 0.0
H384 H 0.53882 0.44000 0.46590 0.0
H385 H 0.58738 0.50492 0.42345 0.0
H386 H 0.61431 0.28004 0.35085 0.0
H387 H 0.63325 0.24017 0.32241 0.0
H388 H 0.68086 0.30512 0.27909 0.0
H389 H 0.66195 0.34500 0.30753 0.0
C390 C 0.39819 0.56629 0.58401 0.0
C391 C 0.38876 0.59655 0.58453 0.0
C392 C 0.40219 0.61842 0.56848 0.0
C393 C 0.42506 0.61004 0.55193 0.0
C394 C 0.43451 0.57979 0.55142 0.0
C395 C 0.42106 0.55791 0.56746 0.0
C396 C 0.36594 0.60495 0.60114 0.0
C397 C 0.34314 0.61337 0.61776 0.0
C398 C 0.32038 0.62182 0.63442 0.0
C399 C 0.29765 0.63029 0.65110 0.0
C400 C 0.27494 0.63878 0.66781 0.0
C401 C 0.26590 0.66914 0.66864 0.0
C402 C 0.24327 0.67765 0.68542 0.0
C403 C 0.22967 0.65580 0.70136 0.0
C404 C 0.23870 0.62543 0.70050 0.0
C405 C 0.26133 0.61692 0.68372 0.0
H406 H 0.38824 0.55010 0.59587 0.0
H407 H 0.39520 0.64081 0.56885 0.0
H408 H 0.43500 0.62623 0.54005 0.0
H409 H 0.42805 0.53551 0.56707 0.0
H410 H 0.27597 0.68533 0.65685 0.0
H411 H 0.23659 0.70014 0.68606 0.0
H412 H 0.22862 0.60925 0.71228 0.0
H413 H 0.26802 0.59443 0.68309 0.0
C414 C 0.57939 0.68948 0.45593 0.0
C415 C 0.58910 0.68278 0.43013 0.0
C416 C 0.58991 0.65270 0.42153 0.0
C417 C 0.58105 0.62931 0.43873 0.0
C418 C 0.57136 0.63600 0.46453 0.0
C419 C 0.57053 0.66609 0.47313 0.0
C420 C 0.59804 0.70616 0.41295 0.0
C421 C 0.60702 0.72953 0.39578 0.0
C422 C 0.61604 0.75288 0.37860 0.0
C423 C 0.62512 0.77621 0.36144 0.0
C424 C 0.63423 0.79954 0.34428 0.0
C425 C 0.64440 0.79271 0.31867 0.0
C426 C 0.65362 0.81602 0.30155 0.0
C427 C 0.65265 0.84615 0.31003 0.0
C428 C 0.64244 0.85297 0.33563 0.0
C429 C 0.63323 0.82966 0.35276 0.0
H430 H 0.57877 0.71176 0.46229 0.0
H431 H 0.59708 0.64774 0.40242 0.0
H432 H 0.58165 0.60703 0.43236 0.0
H433 H 0.56334 0.67105 0.49223 0.0
H434 H 0.64514 0.77041 0.31240 0.0
H435 H 0.66117 0.81097 0.28260 0.0
H436 H 0.64170 0.87527 0.34190 0.0
H437 H 0.62568 0.83471 0.37171 0.0
C438 C 0.46088 0.39151 0.45339 0.0
C439 C 0.46901 0.39245 0.42638 0.0
C440 C 0.48651 0.41594 0.41701 0.0
C441 C 0.49586 0.43850 0.43463 0.0
C442 C 0.48772 0.43757 0.46163 0.0
C443 C 0.47024 0.41407 0.47101 0.0
C444 C 0.45958 0.36993 0.40874 0.0
C445 C 0.45014 0.34744 0.39107 0.0
C446 C 0.44067 0.32498 0.37338 0.0
C447 C 0.43116 0.30256 0.35567 0.0
C448 C 0.42163 0.28016 0.33796 0.0
C449 C 0.42937 0.28146 0.31085 0.0
C450 C 0.41975 0.25913 0.29310 0.0
C451 C 0.40241 0.23550 0.30246 0.0
C452 C 0.39470 0.23419 0.32957 0.0
C453 C 0.40432 0.25653 0.34732 0.0
H454 H 0.44795 0.37411 0.46033 0.0
H455 H 0.49253 0.41662 0.39702 0.0
H456 H 0.50881 0.45589 0.42769 0.0
H457 H 0.46423 0.41338 0.49101 0.0
H458 H 0.44220 0.29896 0.30392 0.0
H459 H 0.42546 0.26010 0.27304 0.0
H460 H 0.38188 0.21669 0.33650 0.0
H461 H 0.39860 0.25556 0.36739 0.0
C462 C 0.43767 0.51596 0.61268 0.0
C463 C 0.42081 0.49092 0.60574 0.0
C464 C 0.42649 0.47506 0.58216 0.0
C465 C 0.44900 0.48426 0.56552 0.0
C466 C 0.46585 0.50931 0.57245 0.0
C467 C 0.46019 0.52516 0.59604 0.0
C468 C 0.39824 0.48177 0.62235 0.0
C469 C 0.37565 0.47263 0.63893 0.0
C470 C 0.35302 0.46350 0.65548 0.0
C471 C 0.33035 0.45440 0.67199 0.0
C472 C 0.30767 0.44531 0.68849 0.0
C473 C 0.29052 0.42059 0.68125 0.0
C474 C 0.26776 0.41157 0.69769 0.0
C475 C 0.26216 0.42726 0.72137 0.0
C476 C 0.27933 0.45196 0.72862 0.0
C477 C 0.30208 0.46099 0.71218 0.0
H478 H 0.43348 0.52769 0.63015 0.0
H479 H 0.41401 0.45651 0.57703 0.0
H480 H 0.45320 0.47252 0.54806 0.0
H481 H 0.47267 0.54370 0.60118 0.0
H482 H 0.29466 0.40898 0.66371 0.0
H483 H 0.25505 0.39328 0.69232 0.0
H484 H 0.27520 0.46357 0.74616 0.0
H485 H 0.31479 0.47928 0.71755 0.0
C486 C 0.48363 0.64940 0.43665 0.0
C487 C 0.47595 0.64175 0.41020 0.0
C488 C 0.48042 0.61212 0.40130 0.0
C489 C 0.49259 0.59014 0.41885 0.0
C490 C 0.50029 0.59778 0.44529 0.0
C491 C 0.49580 0.62742 0.45420 0.0
C492 C 0.46386 0.66376 0.39263 0.0
C493 C 0.45179 0.68576 0.37504 0.0
C494 C 0.43977 0.70776 0.35742 0.0
C495 C 0.42779 0.72976 0.33978 0.0
C496 C 0.41584 0.75177 0.32213 0.0
C497 C 0.40866 0.74419 0.29555 0.0
C498 C 0.39681 0.76622 0.27786 0.0
C499 C 0.39214 0.79582 0.28675 0.0
C500 C 0.39929 0.80339 0.31334 0.0
C501 C 0.41114 0.78136 0.33103 0.0
H502 H 0.48030 0.67133 0.44325 0.0
H503 H 0.47472 0.60646 0.38173 0.0
H504 H 0.49590 0.56820 0.41226 0.0
H505 H 0.50148 0.63307 0.47378 0.0
H506 H 0.41213 0.72228 0.28896 0.0
H507 H 0.39152 0.76061 0.25818 0.0
H508 H 0.39582 0.82529 0.31993 0.0
H509 H 0.41645 0.78696 0.35071 0.0
C510 C 0.64311 0.59474 0.57813 0.0
C511 C 0.64367 0.58936 0.60599 0.0
C512 C 0.62121 0.57321 0.61795 0.0
C513 C 0.59819 0.56247 0.60206 0.0
C514 C 0.59763 0.56786 0.57421 0.0
C515 C 0.62009 0.58400 0.56224 0.0
C516 C 0.66665 0.60018 0.62189 0.0
C517 C 0.68960 0.61103 0.63781 0.0
C518 C 0.71253 0.62191 0.65375 0.0
C519 C 0.73542 0.63283 0.66970 0.0
C520 C 0.75829 0.64377 0.68567 0.0
C521 C 0.75853 0.63882 0.71358 0.0
C522 C 0.78134 0.64986 0.72956 0.0
C523 C 0.80392 0.66584 0.71763 0.0
C524 C 0.80370 0.67076 0.68972 0.0
C525 C 0.78088 0.65973 0.67374 0.0
H526 H 0.65974 0.60668 0.56927 0.0
H527 H 0.62164 0.56922 0.63857 0.0
H528 H 0.58157 0.55052 0.61091 0.0
H529 H 0.61968 0.58798 0.54162 0.0
H530 H 0.74180 0.62700 0.72241 0.0
H531 H 0.78150 0.64621 0.75022 0.0
H532 H 0.82042 0.68258 0.68089 0.0
H533 H 0.78071 0.66338 0.65307 0.0
C534 C 0.95785 0.04686 0.05036 0.0
C535 C 0.92874 0.05528 0.05341 0.0
C536 C 0.03874 0.11707 0.95977 0.0
C537 C 0.04604 0.14780 0.95902 0.0
C538 C 0.09625 0.02019 0.05096 0.0
C539 C 0.12563 0.01182 0.05258 0.0
C540 C 0.01480 0.96378 0.95919 0.0
C541 C 0.00817 0.93320 0.95543 0.0
