data_{}
_symmetry_space_group_name_H-M    P1
_symmetry_Int_Tables_number       1
_symmetry_cell_setting            triclinic
loop_
_symmetry_equiv_pos_as_xyz
'x, y, z'
_cell_length_a     41.461
_cell_length_b     39.625
_cell_length_c     68.495
_cell_angle_alpha  89.360
_cell_angle_beta   91.461
_cell_angle_gamma  89.539
loop_
_atom_site_label
_atom_site_type_symbol
_atom_site_fract_x
_atom_site_fract_y
_atom_site_fract_z
_atom_type_partial_charge
C0 C 0.99019 0.03681 0.03081 0.0
C1 C 0.02202 0.03226 0.01999 0.0
C2 C 0.05392 0.02681 0.03165 0.0
C3 C 0.05399 0.02591 0.05414 0.0
C4 C 0.02216 0.03046 0.06496 0.0
C5 C 0.99027 0.03591 0.05329 0.0
C6 C 0.02345 0.03371 0.99753 0.0
C7 C 0.02436 0.06730 0.98605 0.0
C8 C 0.02404 0.06723 0.96356 0.0
C9 C 0.02282 0.03357 0.95256 0.0
C10 C 0.02191 0.99990 0.96405 0.0
C11 C 0.02223 0.00010 0.98653 0.0
H12 H 0.96658 0.04084 0.02217 0.0
H13 H 0.07747 0.02344 0.02365 0.0
H14 H 0.02527 0.09222 0.99419 0.0
H15 H 0.02155 0.97517 0.99503 0.0
H16 H 0.02222 0.02979 0.08160 0.0
H17 H 0.02451 0.03518 0.93595 0.0
Si18 Si 0.53141 0.53568 0.51474 0.0
C19 C 0.60517 0.55957 0.55425 0.0
C20 C 0.50372 0.60565 0.47179 0.0
C21 C 0.50579 0.57750 0.48415 0.0
C22 C 0.53150 0.57340 0.49807 0.0
C23 C 0.55561 0.59772 0.49830 0.0
C24 C 0.55404 0.62540 0.48555 0.0
C25 C 0.52813 0.62943 0.47264 0.0
C26 C 0.50189 0.44802 0.48622 0.0
C27 C 0.50394 0.47432 0.49943 0.0
C28 C 0.52766 0.49843 0.49819 0.0
C29 C 0.54999 0.49596 0.48319 0.0
C30 C 0.54858 0.47001 0.46996 0.0
C31 C 0.52481 0.44603 0.47134 0.0
H32 H 0.65019 0.54015 0.55547 0.0
C33 C 0.44506 0.56608 0.53860 0.0
C34 C 0.43945 0.54138 0.55248 0.0
C35 C 0.46121 0.51525 0.55554 0.0
C36 C 0.48880 0.51391 0.54477 0.0
C37 C 0.49535 0.53830 0.53064 0.0
H38 H 0.52697 0.64830 0.46443 0.0
C39 C 0.47278 0.56400 0.52781 0.0
H40 H 0.48998 0.56106 0.48326 0.0
H41 H 0.52386 0.42849 0.46247 0.0
H42 H 0.42090 0.54244 0.55979 0.0
C43 C 0.63014 0.53847 0.54915 0.0
H44 H 0.57300 0.59543 0.50708 0.0
H45 H 0.48902 0.47572 0.50930 0.0
H46 H 0.56603 0.51213 0.48216 0.0
C47 C 0.62549 0.51450 0.53448 0.0
C48 C 0.59577 0.51311 0.52461 0.0
C49 C 0.56978 0.53447 0.52945 0.0
C50 C 0.57556 0.55701 0.54439 0.0
H51 H 0.50344 0.49626 0.54698 0.0
H52 H 0.47644 0.58044 0.51834 0.0
H53 H 0.59297 0.49773 0.51456 0.0
H54 H 0.55882 0.57118 0.54804 0.0
C55 C 0.83966 0.43523 0.63320 0.0
C56 C 0.85547 0.40010 0.63159 0.0
C57 C 0.88998 0.39411 0.63980 0.0
C58 C 0.90618 0.35913 0.63825 0.0
C59 C 0.94075 0.35342 0.64646 0.0
C60 C 0.95904 0.38270 0.65617 0.0
C61 C 0.94280 0.41760 0.65777 0.0
C62 C 0.90829 0.42330 0.64957 0.0
C63 C 0.00303 0.34068 0.66440 0.0
C64 C 0.03543 0.34095 0.67572 0.0
C65 C 0.06664 0.34853 0.66492 0.0
C66 C 0.09785 0.35526 0.67680 0.0
C67 C 0.09876 0.35036 0.69915 0.0
C68 C 0.06809 0.33960 0.70970 0.0
C69 C 0.03637 0.33496 0.69796 0.0
C70 C 0.00508 0.32697 0.70866 0.0
C71 C 0.06598 0.35216 0.64247 0.0
C72 C 0.13004 0.35743 0.71094 0.0
C73 C 0.12814 0.36733 0.66644 0.0
C74 C 0.16228 0.41748 0.66336 0.0
C75 C 0.18400 0.39435 0.65137 0.0
C76 C 0.21664 0.40729 0.64429 0.0
C77 C 0.22749 0.44335 0.64921 0.0
C78 C 0.20561 0.46658 0.66108 0.0
C79 C 0.17297 0.45363 0.66816 0.0
C80 C 0.26029 0.45606 0.64227 0.0
C81 C 0.28209 0.43262 0.63049 0.0
C82 C 0.06851 0.33539 0.73206 0.0
C83 C 0.07823 0.29245 0.75763 0.0
C84 C 0.06989 0.32035 0.77216 0.0
C85 C 0.06289 0.31102 0.79350 0.0
C86 C 0.06417 0.27381 0.80022 0.0
C87 C 0.07260 0.24595 0.78568 0.0
C88 C 0.07964 0.25528 0.76436 0.0
C89 C 0.05689 0.26430 0.82148 0.0
C90 C 0.05797 0.22699 0.82799 0.0
O91 O 0.99271 0.37726 0.66444 0.0
O92 O 0.08351 0.30133 0.73654 0.0
O93 O 0.13084 0.40442 0.67083 0.0
H94 H 0.85352 0.45663 0.64046 0.0
H95 H 0.84169 0.37863 0.62434 0.0
H96 H 0.89261 0.33751 0.63103 0.0
H97 H 0.95279 0.32756 0.64536 0.0
H98 H 0.95636 0.43919 0.66504 0.0
H99 H 0.89627 0.44914 0.65072 0.0
H100 H 0.00614 0.33147 0.64885 0.0
H101 H 0.98497 0.32439 0.67242 0.0
H102 H 0.00940 0.33001 0.72505 0.0
H103 H 0.99745 0.29996 0.70550 0.0
H104 H 0.98524 0.34520 0.70335 0.0
H105 H 0.04024 0.35764 0.63700 0.0
H106 H 0.07481 0.32756 0.63586 0.0
H107 H 0.08241 0.37358 0.63787 0.0
H108 H 0.12551 0.35420 0.72720 0.0
H109 H 0.13796 0.38439 0.70782 0.0
H110 H 0.14978 0.33910 0.70644 0.0
H111 H 0.15025 0.35315 0.67257 0.0
H112 H 0.12555 0.36337 0.65001 0.0
H113 H 0.17598 0.36760 0.64781 0.0
H114 H 0.23281 0.39018 0.63545 0.0
H115 H 0.21360 0.49332 0.66465 0.0
H116 H 0.15678 0.47073 0.67702 0.0
H117 H 0.26845 0.48274 0.64585 0.0
H118 H 0.27386 0.40595 0.62692 0.0
H119 H 0.08315 0.35612 0.73942 0.0
H120 H 0.04267 0.33599 0.73738 0.0
H121 H 0.06869 0.34783 0.76709 0.0
H122 H 0.05665 0.33161 0.80430 0.0
H123 H 0.07351 0.21842 0.79070 0.0
H124 H 0.08567 0.23468 0.75354 0.0
H125 H 0.05068 0.28478 0.83236 0.0
H126 H 0.06418 0.20659 0.81706 0.0
C127 C 0.65234 0.84262 0.39118 0.0
C128 C 0.68205 0.86340 0.39738 0.0
C129 C 0.69194 0.89399 0.38491 0.0
C130 C 0.72166 0.91497 0.39088 0.0
C131 C 0.73141 0.94548 0.37826 0.0
C132 C 0.71146 0.95487 0.35971 0.0
C133 C 0.68172 0.93397 0.35379 0.0
C134 C 0.67199 0.90351 0.36638 0.0
C135 C 0.74702 0.00553 0.35681 0.0
C136 C 0.74886 0.03641 0.34319 0.0
C137 C 0.76991 0.03505 0.32507 0.0
C138 C 0.76677 0.06332 0.30956 0.0
C139 C 0.74574 0.09471 0.31330 0.0
C140 C 0.72710 0.09738 0.33237 0.0
C141 C 0.72862 0.06815 0.34732 0.0
C142 C 0.70789 0.06951 0.36563 0.0
C143 C 0.79191 0.00420 0.32170 0.0
C144 C 0.74252 0.12277 0.29762 0.0
C145 C 0.78424 0.06016 0.29017 0.0
C146 C 0.77279 0.05224 0.25512 0.0
C147 C 0.80925 0.05753 0.25298 0.0
C148 C 0.82368 0.05943 0.23252 0.0
C149 C 0.80161 0.05602 0.21424 0.0
C150 C 0.76515 0.05044 0.21640 0.0
C151 C 0.75073 0.04855 0.23686 0.0
C152 C 0.81610 0.05826 0.19381 0.0
C153 C 0.85256 0.06399 0.19178 0.0
C154 C 0.70544 0.12823 0.33607 0.0
C155 C 0.70750 0.18434 0.35078 0.0
C156 C 0.67134 0.18708 0.34529 0.0
C157 C 0.65057 0.21503 0.35420 0.0
C158 C 0.66601 0.24010 0.36862 0.0
C159 C 0.70219 0.23737 0.37405 0.0
C160 C 0.72296 0.20946 0.36512 0.0
C161 C 0.64531 0.26788 0.37772 0.0
C162 C 0.66094 0.29261 0.39224 0.0
O163 O 0.72059 0.98488 0.34741 0.0
O164 O 0.72751 0.15601 0.34284 0.0
O165 O 0.75854 0.05150 0.27512 0.0
H166 H 0.63780 0.84996 0.37741 0.0
H167 H 0.69666 0.85614 0.41114 0.0
H168 H 0.73642 0.90793 0.40460 0.0
H169 H 0.75336 0.96109 0.38266 0.0
H170 H 0.66693 0.94108 0.34009 0.0
H171 H 0.65001 0.88798 0.36199 0.0
H172 H 0.77083 0.99091 0.35737 0.0
H173 H 0.74001 0.01364 0.37206 0.0
H174 H 0.69014 0.09156 0.36417 0.0
H175 H 0.72408 0.07299 0.37916 0.0
H176 H 0.69403 0.04491 0.36706 0.0
H177 H 0.78321 0.98180 0.33068 0.0
H178 H 0.81768 0.01054 0.32650 0.0
H179 H 0.79141 0.99750 0.30556 0.0
H180 H 0.72473 0.14284 0.30256 0.0
H181 H 0.73334 0.11134 0.28335 0.0
H182 H 0.76708 0.13470 0.29529 0.0
H183 H 0.79581 0.08526 0.28624 0.0
H184 H 0.80335 0.03932 0.29120 0.0
H185 H 0.82553 0.06020 0.26654 0.0
H186 H 0.85067 0.06342 0.23090 0.0
H187 H 0.74884 0.04779 0.20286 0.0
H188 H 0.72372 0.04457 0.23850 0.0
H189 H 0.79989 0.05573 0.18022 0.0
H190 H 0.86871 0.06651 0.20539 0.0
H191 H 0.69154 0.13637 0.32222 0.0
H192 H 0.68786 0.12177 0.34807 0.0
H193 H 0.65995 0.16830 0.33474 0.0
H194 H 0.62376 0.21710 0.35019 0.0
H195 H 0.71355 0.25595 0.38474 0.0
H196 H 0.74970 0.20725 0.36922 0.0
H197 H 0.61850 0.27012 0.37375 0.0
H198 H 0.68776 0.29027 0.39618 0.0
C199 C 0.78969 0.66457 0.62839 0.0
C200 C 0.80624 0.64442 0.64526 0.0
C201 C 0.84063 0.65366 0.65217 0.0
C202 C 0.85755 0.63367 0.66898 0.0
C203 C 0.89201 0.64306 0.67575 0.0
C204 C 0.90946 0.67235 0.66568 0.0
C205 C 0.89251 0.69238 0.64893 0.0
C206 C 0.85811 0.68301 0.64217 0.0
C207 C 0.95404 0.66346 0.69071 0.0
C208 C 0.98612 0.68053 0.69598 0.0
C209 C 0.01748 0.66805 0.68687 0.0
C210 C 0.04824 0.68922 0.68917 0.0
C211 C 0.04863 0.72034 0.70245 0.0
C212 C 0.01789 0.73085 0.71304 0.0
C213 C 0.98658 0.71094 0.70977 0.0
C214 C 0.95515 0.72307 0.71903 0.0
C215 C 0.01736 0.63614 0.67418 0.0
C216 C 0.07945 0.74155 0.70453 0.0
C217 C 0.07856 0.67967 0.67801 0.0
C218 C 0.11181 0.70023 0.65120 0.0
C219 C 0.13431 0.67051 0.65699 0.0
C220 C 0.16689 0.66632 0.64698 0.0
C221 C 0.17690 0.69186 0.63120 0.0
C222 C 0.15425 0.72144 0.62529 0.0
C223 C 0.12167 0.72563 0.63531 0.0
C224 C 0.20964 0.68776 0.62136 0.0
C225 C 0.23221 0.65820 0.62741 0.0
C226 C 0.01777 0.76232 0.72598 0.0
C227 C 0.02763 0.77910 0.75995 0.0
C228 C 0.01836 0.81501 0.75296 0.0
C229 C 0.01096 0.84239 0.76800 0.0
C230 C 0.01278 0.83374 0.78998 0.0
C231 C 0.02214 0.79784 0.79694 0.0
C232 C 0.02958 0.77048 0.78191 0.0
C233 C 0.00511 0.86091 0.80507 0.0
C234 C 0.00673 0.85190 0.82699 0.0
O235 O 0.94301 0.68197 0.67234 0.0
O236 O 0.03332 0.75186 0.74525 0.0
O237 O 0.08043 0.70494 0.66146 0.0
H238 H 0.80294 0.68624 0.62111 0.0
H239 H 0.79307 0.62273 0.65258 0.0
H240 H 0.84460 0.61195 0.67640 0.0
H241 H 0.90458 0.62835 0.68821 0.0
H242 H 0.90545 0.71415 0.64155 0.0
H243 H 0.84556 0.69777 0.62974 0.0
H244 H 0.95775 0.63544 0.68781 0.0
H245 H 0.93608 0.66735 0.70283 0.0
H246 H 0.95896 0.74921 0.72542 0.0
H247 H 0.94813 0.70471 0.73111 0.0
H248 H 0.93511 0.72431 0.70733 0.0
H249 H 0.99167 0.63075 0.66883 0.0
H250 H 0.02684 0.61380 0.68334 0.0
H251 H 0.03350 0.63998 0.66113 0.0
H252 H 0.07454 0.76437 0.71404 0.0
H253 H 0.08693 0.75043 0.68943 0.0
H254 H 0.09967 0.72552 0.71153 0.0
H255 H 0.10079 0.68168 0.68806 0.0
H256 H 0.07650 0.65300 0.67205 0.0
H257 H 0.12691 0.65171 0.66875 0.0
H258 H 0.18363 0.64438 0.65127 0.0
H259 H 0.16163 0.74027 0.61355 0.0
H260 H 0.10491 0.74759 0.63103 0.0
H261 H 0.21718 0.70657 0.60965 0.0
H262 H 0.22460 0.63942 0.63912 0.0
H263 H 0.03181 0.78379 0.71908 0.0
H264 H 0.99178 0.77067 0.72831 0.0
H265 H 0.01676 0.82123 0.73668 0.0
H266 H 0.00402 0.86901 0.76288 0.0
H267 H 0.02346 0.79151 0.81322 0.0
H268 H 0.03631 0.74383 0.78702 0.0
H269 H 0.99820 0.88759 0.80004 0.0
H270 H 0.01363 0.82519 0.83196 0.0
C271 C 0.39483 0.77500 0.38804 0.0
C272 C 0.36138 0.79170 0.38984 0.0
C273 C 0.35550 0.82771 0.38179 0.0
C274 C 0.32220 0.84481 0.38353 0.0
C275 C 0.31660 0.88090 0.37547 0.0
C276 C 0.34431 0.89978 0.36573 0.0
C277 C 0.37754 0.88265 0.36393 0.0
C278 C 0.38314 0.84663 0.37198 0.0
C279 C 0.30405 0.94586 0.35782 0.0
C280 C 0.30406 0.97960 0.34663 0.0
C281 C 0.31179 0.01237 0.35752 0.0
C282 C 0.31793 0.04484 0.34574 0.0
C283 C 0.31249 0.04551 0.32341 0.0
C284 C 0.30173 0.01332 0.31277 0.0
C285 C 0.29757 0.98031 0.32440 0.0
C286 C 0.28945 0.94746 0.31361 0.0
C287 C 0.31602 0.01197 0.37996 0.0
C288 C 0.31896 0.07805 0.31171 0.0
C289 C 0.32994 0.07662 0.35617 0.0
C290 C 0.37811 0.11219 0.35920 0.0
C291 C 0.35650 0.13516 0.37136 0.0
C292 C 0.36924 0.16936 0.37852 0.0
C293 C 0.40357 0.18051 0.37351 0.0
C294 C 0.42528 0.15738 0.36147 0.0
C295 C 0.41253 0.12318 0.35431 0.0
C296 C 0.41608 0.21487 0.38054 0.0
C297 C 0.39417 0.23792 0.39249 0.0
C298 C 0.29694 0.01347 0.29043 0.0
C299 C 0.25507 0.02346 0.26504 0.0
C300 C 0.28120 0.01444 0.25037 0.0
C301 C 0.27153 0.00687 0.22904 0.0
C302 C 0.23575 0.00825 0.22246 0.0
C303 C 0.20966 0.01736 0.23714 0.0
C304 C 0.21933 0.02498 0.25846 0.0
C305 C 0.22590 0.00010 0.20121 0.0
C306 C 0.19003 0.00156 0.19484 0.0
O307 O 0.33897 0.93492 0.35761 0.0
O308 O 0.26430 0.02923 0.28613 0.0
O309 O 0.36525 0.07925 0.35166 0.0
H310 H 0.41509 0.78933 0.38075 0.0
H311 H 0.34106 0.77746 0.39713 0.0
H312 H 0.30174 0.83079 0.39079 0.0
H313 H 0.29197 0.89360 0.37672 0.0
H314 H 0.39798 0.89666 0.35664 0.0
H315 H 0.40775 0.83395 0.37069 0.0
H316 H 0.29580 0.94935 0.37343 0.0
H317 H 0.28814 0.92692 0.34979 0.0
H318 H 0.29181 0.95175 0.29723 0.0
H319 H 0.26371 0.93962 0.31685 0.0
H320 H 0.30697 0.92671 0.31878 0.0
H321 H 0.32134 0.98509 0.38531 0.0
H322 H 0.29278 0.02138 0.38669 0.0
H323 H 0.33671 0.02914 0.38455 0.0
H324 H 0.31530 0.07311 0.29544 0.0
H325 H 0.34487 0.08628 0.31476 0.0
H326 H 0.30169 0.09883 0.31635 0.0
H327 H 0.31627 0.09973 0.35018 0.0
H328 H 0.32672 0.07414 0.37261 0.0
H329 H 0.33103 0.12692 0.37499 0.0
H330 H 0.35325 0.18646 0.38750 0.0
H331 H 0.45074 0.16559 0.35783 0.0
H332 H 0.42850 0.10606 0.34532 0.0
H333 H 0.44149 0.22326 0.37688 0.0
H334 H 0.36878 0.22946 0.39612 0.0
H335 H 0.31656 0.02862 0.28305 0.0
H336 H 0.29723 0.98637 0.28501 0.0
H337 H 0.30763 0.01315 0.25534 0.0
H338 H 0.29081 0.00010 0.21814 0.0
H339 H 0.18318 0.01836 0.23223 0.0
H340 H 0.20004 0.03151 0.26938 0.0
H341 H 0.24507 0.99367 0.19023 0.0
H342 H 0.17094 0.00828 0.20586 0.0
C343 C 0.65725 0.49399 0.54502 0.0
C344 C 0.68507 0.48456 0.55942 0.0
C345 C 0.71291 0.47511 0.57384 0.0
C346 C 0.74066 0.46561 0.58827 0.0
C347 C 0.76834 0.45601 0.60276 0.0
C348 C 0.79594 0.44636 0.61727 0.0
C349 C 0.56849 0.46040 0.46194 0.0
C350 C 0.58355 0.43204 0.44989 0.0
C351 C 0.59863 0.40365 0.43783 0.0
C352 C 0.61360 0.37529 0.42575 0.0
C353 C 0.62845 0.34689 0.41360 0.0
C354 C 0.64322 0.31851 0.40143 0.0
C355 C 0.41496 0.58962 0.54442 0.0
C356 C 0.38730 0.60089 0.55749 0.0
C357 C 0.35961 0.61217 0.57058 0.0
C358 C 0.33203 0.62348 0.58370 0.0
C359 C 0.30452 0.63486 0.59689 0.0
C360 C 0.27710 0.64626 0.61011 0.0
C361 C 0.57871 0.65727 0.47732 0.0
C362 C 0.59045 0.68580 0.46388 0.0
C363 C 0.60219 0.71435 0.45043 0.0
C364 C 0.61384 0.74286 0.43697 0.0
C365 C 0.62536 0.77141 0.42344 0.0
C366 C 0.63678 0.79993 0.40989 0.0
C367 C 0.47703 0.41844 0.47586 0.0
C368 C 0.46399 0.39112 0.46201 0.0
C369 C 0.45093 0.36377 0.44815 0.0
C370 C 0.43790 0.33639 0.43436 0.0
C371 C 0.42488 0.30886 0.42062 0.0
C372 C 0.41189 0.28128 0.40693 0.0
C373 C 0.44903 0.50319 0.56331 0.0
C374 C 0.42060 0.49114 0.57554 0.0
C375 C 0.39215 0.47908 0.58779 0.0
C376 C 0.36378 0.46696 0.60005 0.0
C377 C 0.33549 0.45472 0.61236 0.0
C378 C 0.30727 0.44242 0.62469 0.0
C379 C 0.49086 0.61225 0.46094 0.0
C380 C 0.47309 0.63886 0.44804 0.0
C381 C 0.45529 0.66549 0.43511 0.0
C382 C 0.43755 0.69204 0.42216 0.0
C383 C 0.41984 0.71854 0.40911 0.0
C384 C 0.40218 0.74498 0.39603 0.0
C385 C 0.61325 0.57756 0.56413 0.0
C386 C 0.64202 0.59292 0.57545 0.0
C387 C 0.67083 0.60828 0.58678 0.0
C388 C 0.69965 0.62360 0.59806 0.0
C389 C 0.72861 0.63887 0.60928 0.0
C390 C 0.75761 0.65409 0.62046 0.0
C391 C 0.96483 0.04004 0.06717 0.0
C392 C 0.97271 0.04627 0.08893 0.0
C393 C 0.94529 0.04912 0.10361 0.0
N394 N 0.95316 0.05523 0.12493 0.0
N395 N 0.92688 0.05797 0.13908 0.0
C396 C 0.89216 0.05465 0.13221 0.0
N397 N 0.88429 0.04854 0.11090 0.0
N398 N 0.91057 0.04580 0.09674 0.0
C399 C 0.86477 0.05749 0.14691 0.0
C400 C 0.87269 0.06372 0.16866 0.0
H401 H 0.99889 0.04879 0.09418 0.0
H402 H 0.83857 0.05497 0.14167 0.0
H403 H 0.93942 0.03721 0.06068 0.0
H404 H 0.89860 0.06636 0.17437 0.0
C405 C 0.02828 0.09406 0.94884 0.0
C406 C 0.00774 0.11645 0.93474 0.0
C407 C 0.02351 0.13438 0.91737 0.0
N408 N 0.00325 0.15631 0.90359 0.0
N409 N 0.01833 0.17356 0.88689 0.0
C410 C 0.05400 0.16926 0.88362 0.0
N411 N 0.07427 0.14733 0.89740 0.0
N412 N 0.05919 0.13007 0.91410 0.0
C413 C 0.06975 0.18719 0.86625 0.0
C414 C 0.04918 0.20957 0.85216 0.0
H415 H 0.98079 0.11977 0.93715 0.0
H416 H 0.09670 0.18389 0.86382 0.0
H417 H 0.05529 0.08935 0.94752 0.0
H418 H 0.02219 0.21341 0.85417 0.0
C419 C 0.07776 0.01971 0.06815 0.0
C420 C 0.08853 0.04136 0.08564 0.0
C421 C 0.10765 0.02515 0.10296 0.0
N422 N 0.11816 0.04649 0.12008 0.0
N423 N 0.13653 0.03100 0.13674 0.0
C424 C 0.14480 0.99382 0.13664 0.0
N425 N 0.13429 0.97247 0.11953 0.0
N426 N 0.11592 0.98796 0.10286 0.0
C427 C 0.16392 0.97763 0.15397 0.0
C428 C 0.17468 0.99990 0.17145 0.0
H429 H 0.08235 0.06945 0.08578 0.0
H430 H 0.17012 0.94954 0.15385 0.0
H431 H 0.08289 0.99154 0.06681 0.0
H432 H 0.16888 0.02745 0.17203 0.0
C433 C 0.02129 0.97576 0.94956 0.0
C434 C 0.99621 0.95461 0.93824 0.0
C435 C 0.00395 0.94079 0.91793 0.0
N436 N 0.97926 0.92006 0.90689 0.0
N437 N 0.98662 0.90675 0.88738 0.0
C438 C 0.01885 0.91389 0.87847 0.0
N439 N 0.04354 0.93462 0.88951 0.0
N440 N 0.03618 0.94793 0.90902 0.0
C441 C 0.02657 0.90006 0.85817 0.0
C442 C 0.00147 0.87891 0.84687 0.0
H443 H 0.97184 0.94915 0.94491 0.0
H444 H 0.05093 0.90550 0.85148 0.0
H445 H 0.04617 0.98239 0.94401 0.0
H446 H 0.97689 0.87301 0.85312 0.0
