data_{}
_symmetry_space_group_name_H-M    P1
_symmetry_Int_Tables_number       1
_symmetry_cell_setting            triclinic
loop_
_symmetry_equiv_pos_as_xyz
'x, y, z'
_cell_length_a     78.490
_cell_length_b     74.511
_cell_length_c     41.074
_cell_angle_alpha  90.113
_cell_angle_beta   90.115
_cell_angle_gamma  91.984
loop_
_atom_site_label
_atom_site_type_symbol
_atom_site_fract_x
_atom_site_fract_y
_atom_site_fract_z
_atom_type_partial_charge
H0 H 0.03290 0.54223 0.91800 0.0
H1 H 0.04812 0.49213 0.91515 0.0
H2 H 0.01539 0.53429 0.96003 0.0
H3 H 0.02773 0.48537 0.95457 0.0
H4 H 0.96858 0.46139 0.91753 0.0
H5 H 0.95337 0.51149 0.91492 0.0
H6 H 0.98611 0.46933 0.95973 0.0
H7 H 0.97377 0.51825 0.95451 0.0
H8 H 0.02188 0.53526 0.03445 0.0
H9 H 0.04177 0.54348 0.07295 0.0
H10 H 0.04151 0.49219 0.10166 0.0
H11 H 0.02155 0.48614 0.06214 0.0
H12 H 0.00928 0.46527 0.02441 0.0
H13 H 0.97965 0.46838 0.03410 0.0
H14 H 0.95978 0.46017 0.07242 0.0
H15 H 0.96005 0.51146 0.10148 0.0
H16 H 0.98000 0.51751 0.06211 0.0
H17 H 0.99224 0.53837 0.02460 0.0
C18 C 0.04326 0.51829 0.91297 0.0
C19 C 0.03278 0.53055 0.92592 0.0
C20 C 0.04151 0.50110 0.92373 0.0
C21 C 0.02200 0.52547 0.95092 0.0
C22 C 0.02941 0.49728 0.94820 0.0
C23 C 0.95822 0.48533 0.91260 0.0
C24 C 0.96871 0.47307 0.92554 0.0
C25 C 0.95998 0.50252 0.92349 0.0
C26 C 0.97950 0.47816 0.95063 0.0
C27 C 0.97208 0.50635 0.94806 0.0
C28 C 0.02595 0.52642 0.04809 0.0
C29 C 0.03796 0.53156 0.07110 0.0
C30 C 0.04415 0.51865 0.09114 0.0
C31 C 0.03783 0.50128 0.08810 0.0
C32 C 0.02583 0.49789 0.06422 0.0
C33 C 0.97559 0.47722 0.04777 0.0
C34 C 0.96359 0.47208 0.07068 0.0
C35 C 0.95740 0.48500 0.09076 0.0
C36 C 0.96373 0.50237 0.08788 0.0
C37 C 0.97571 0.50575 0.06409 0.0
S38 S 0.01109 0.47043 0.00323 0.0
S39 S 0.99043 0.53321 0.00338 0.0
N40 N 0.02029 0.50953 0.96272 0.0
N41 N 0.98121 0.49410 0.96255 0.0
N42 N 0.01987 0.50999 0.04399 0.0
N43 N 0.98166 0.49365 0.04382 0.0
Mn44 Mn 0.00010 0.50182 0.00300 0.0
H45 H 0.53865 0.97019 0.91789 0.0
H46 H 0.49084 0.95141 0.91491 0.0
H47 H 0.53135 0.98823 0.96002 0.0
H48 H 0.48472 0.97255 0.95445 0.0
H49 H 0.46280 0.03354 0.91776 0.0
H50 H 0.51060 0.05232 0.91528 0.0
H51 H 0.47009 0.01552 0.95985 0.0
H52 H 0.51673 0.03121 0.95475 0.0
H53 H 0.53217 0.98147 0.03440 0.0
H54 H 0.53968 0.96098 0.07279 0.0
H55 H 0.49097 0.95846 0.10146 0.0
H56 H 0.48552 0.97915 0.06205 0.0
H57 H 0.46588 0.99091 0.02438 0.0
H58 H 0.46926 0.02231 0.03426 0.0
H59 H 0.46175 0.04282 0.07270 0.0
H60 H 0.51045 0.04536 0.10179 0.0
H61 H 0.51591 0.02465 0.06231 0.0
H62 H 0.53555 0.01287 0.02474 0.0
C63 C 0.51576 0.95796 0.91278 0.0
C64 C 0.52756 0.96968 0.92580 0.0
C65 C 0.49946 0.95887 0.92354 0.0
C66 C 0.52288 0.98078 0.95086 0.0
C67 C 0.49600 0.97142 0.94808 0.0
C68 C 0.48569 0.04577 0.91291 0.0
C69 C 0.47389 0.03406 0.92577 0.0
C70 C 0.50199 0.04487 0.92380 0.0
C71 C 0.47856 0.02297 0.95080 0.0
C72 C 0.50544 0.03233 0.94830 0.0
C73 C 0.52371 0.97671 0.04801 0.0
C74 C 0.52842 0.96434 0.07095 0.0
C75 C 0.51606 0.95712 0.09094 0.0
C76 C 0.49965 0.96283 0.08793 0.0
C77 C 0.49662 0.97528 0.06412 0.0
C78 C 0.47771 0.02709 0.04796 0.0
C79 C 0.47301 0.03946 0.07094 0.0
C80 C 0.48536 0.04669 0.09107 0.0
C81 C 0.50177 0.04098 0.08816 0.0
C82 C 0.50481 0.02852 0.06430 0.0
S83 S 0.47076 0.98928 0.00320 0.0
S84 S 0.53068 0.01449 0.00352 0.0
N85 N 0.50776 0.98171 0.96266 0.0
N86 N 0.49368 0.02205 0.96272 0.0
N87 N 0.50820 0.98221 0.04394 0.0
N88 N 0.49323 0.02158 0.04399 0.0
Mn89 Mn 0.50072 0.00189 0.00305 0.0
Mn90 Mn 0.50075 0.50189 0.50173 0.0
H91 H 0.53779 0.51829 0.48905 0.0
C92 C 0.49116 0.46058 0.51034 0.0
H93 H 0.52577 0.47106 0.52438 0.0
H94 H 0.55363 0.46284 0.52330 0.0
C95 C 0.46053 0.49682 0.50777 0.0
H96 H 0.56602 0.51144 0.48670 0.0
C97 C 0.46753 0.52456 0.48703 0.0
C98 C 0.45073 0.52961 0.48745 0.0
C99 C 0.43808 0.51753 0.49891 0.0
C100 C 0.44343 0.50085 0.50907 0.0
H101 H 0.46371 0.48549 0.51442 0.0
N102 N 0.52884 0.49524 0.50608 0.0
H103 H 0.47573 0.53272 0.47908 0.0
H104 H 0.44787 0.54094 0.48016 0.0
N105 N 0.47266 0.50854 0.49738 0.0
H106 H 0.43548 0.49234 0.51677 0.0
O107 O 0.50655 0.53033 0.51227 0.0
O108 O 0.51278 0.54190 0.46315 0.0
O109 O 0.49496 0.47345 0.49120 0.0
O110 O 0.48873 0.46188 0.54031 0.0
C111 C 0.51035 0.54320 0.49313 0.0
C112 C 0.54098 0.50696 0.49570 0.0
C113 C 0.53398 0.47922 0.51644 0.0
C114 C 0.55078 0.47417 0.51602 0.0
C115 C 0.56342 0.48625 0.50455 0.0
C116 C 0.55807 0.50293 0.49440 0.0
C117 C 0.14269 0.58591 0.28563 0.0
C118 C 0.14565 0.56896 0.30603 0.0
C119 C 0.15776 0.57006 0.33556 0.0
C120 C 0.16089 0.55322 0.35614 0.0
C121 C 0.17307 0.55444 0.38560 0.0
C122 C 0.18208 0.57248 0.39434 0.0
C123 C 0.17890 0.58931 0.37384 0.0
C124 C 0.16675 0.58809 0.34443 0.0
C125 C 0.19349 0.55699 0.44356 0.0
C126 C 0.20436 0.56242 0.47328 0.0
C127 C 0.22382 0.56085 0.47208 0.0
C128 C 0.23484 0.56952 0.49923 0.0
C129 C 0.22637 0.57775 0.52932 0.0
C130 C 0.20681 0.57774 0.53181 0.0
C131 C 0.19579 0.57009 0.50372 0.0
C132 C 0.17627 0.57143 0.50493 0.0
C133 C 0.23226 0.55199 0.44253 0.0
C134 C 0.23751 0.58654 0.55626 0.0
C135 C 0.25435 0.57023 0.49624 0.0
C136 C 0.27832 0.59189 0.48827 0.0
C137 C 0.28951 0.57561 0.49374 0.0
C138 C 0.30902 0.57826 0.49559 0.0
C139 C 0.31731 0.59718 0.49196 0.0
C140 C 0.30611 0.61345 0.48621 0.0
C141 C 0.28659 0.61080 0.48437 0.0
C142 C 0.33681 0.59978 0.49415 0.0
C143 C 0.34791 0.58346 0.50004 0.0
C144 C 0.19821 0.58629 0.56138 0.0
C145 C 0.18728 0.57850 0.61561 0.0
C146 C 0.18202 0.59817 0.61785 0.0
C147 C 0.16964 0.60388 0.64466 0.0
C148 C 0.16253 0.58989 0.66908 0.0
C149 C 0.16784 0.57023 0.66686 0.0
C150 C 0.18023 0.56453 0.64009 0.0
C151 C 0.15003 0.59548 0.69573 0.0
C152 C 0.14289 0.58134 0.71983 0.0
O153 O 0.19385 0.57386 0.42331 0.0
O154 O 0.19871 0.57270 0.58845 0.0
O155 O 0.25921 0.58938 0.48753 0.0
H156 H 0.14945 0.59917 0.29248 0.0
H157 H 0.13892 0.55567 0.29926 0.0
H158 H 0.15423 0.53987 0.34959 0.0
H159 H 0.17540 0.54201 0.40091 0.0
H160 H 0.18554 0.60267 0.38046 0.0
H161 H 0.16441 0.60053 0.32919 0.0
H162 H 0.19934 0.54545 0.42971 0.0
H163 H 0.17990 0.55324 0.45141 0.0
H164 H 0.17269 0.58052 0.52601 0.0
H165 H 0.17010 0.55750 0.50854 0.0
H166 H 0.17161 0.57734 0.48106 0.0
H167 H 0.22314 0.55195 0.42089 0.0
H168 H 0.23530 0.53756 0.44894 0.0
H169 H 0.24456 0.55970 0.43596 0.0
H170 H 0.22899 0.59268 0.57546 0.0
H171 H 0.24611 0.59750 0.54504 0.0
H172 H 0.24571 0.57599 0.56800 0.0
H173 H 0.26033 0.56657 0.52055 0.0
H174 H 0.25862 0.56070 0.47634 0.0
H175 H 0.28334 0.56162 0.49656 0.0
H176 H 0.31733 0.56623 0.49971 0.0
H177 H 0.31225 0.62745 0.48341 0.0
H178 H 0.27826 0.62283 0.48026 0.0
H179 H 0.34302 0.61376 0.49145 0.0
H180 H 0.34166 0.56950 0.50272 0.0
H181 H 0.20519 0.59929 0.56900 0.0
H182 H 0.18439 0.58906 0.55504 0.0
H183 H 0.18719 0.60845 0.59955 0.0
H184 H 0.16569 0.61843 0.64635 0.0
H185 H 0.16255 0.55990 0.68497 0.0
H186 H 0.18409 0.54997 0.63826 0.0
H187 H 0.14605 0.61001 0.69758 0.0
H188 H 0.14689 0.56682 0.71788 0.0
C189 C 0.42394 0.14691 0.28507 0.0
C190 C 0.44002 0.15120 0.30560 0.0
C191 C 0.43899 0.16387 0.33512 0.0
C192 C 0.45498 0.16834 0.35583 0.0
C193 C 0.45382 0.18108 0.38528 0.0
C194 C 0.43669 0.18933 0.39388 0.0
C195 C 0.42072 0.18481 0.37325 0.0
C196 C 0.42187 0.17210 0.34385 0.0
C197 C 0.45140 0.20241 0.44322 0.0
C198 C 0.44625 0.21349 0.47290 0.0
C199 C 0.44774 0.23410 0.47171 0.0
C200 C 0.43951 0.24511 0.49879 0.0
C201 C 0.43170 0.23562 0.52882 0.0
C202 C 0.43170 0.21501 0.53131 0.0
C203 C 0.43896 0.20393 0.50328 0.0
C204 C 0.43769 0.18328 0.50448 0.0
C205 C 0.45615 0.24360 0.44222 0.0
C206 C 0.42336 0.24674 0.55569 0.0
C207 C 0.43885 0.26561 0.49580 0.0
C208 C 0.41828 0.28937 0.48766 0.0
C209 C 0.43374 0.30228 0.49325 0.0
C210 C 0.43123 0.32265 0.49508 0.0
C211 C 0.41327 0.33007 0.49132 0.0
C212 C 0.39783 0.31715 0.48545 0.0
C213 C 0.40034 0.29678 0.48362 0.0
C214 C 0.41081 0.35044 0.49348 0.0
C215 C 0.42631 0.36326 0.49950 0.0
C216 C 0.42359 0.20536 0.56081 0.0
C217 C 0.43098 0.19438 0.61511 0.0
C218 C 0.41231 0.18748 0.61720 0.0
C219 C 0.40688 0.17405 0.64396 0.0
C220 C 0.42017 0.16753 0.66849 0.0
C221 C 0.43883 0.17448 0.66641 0.0
C222 C 0.44424 0.18792 0.63970 0.0
C223 C 0.41486 0.15397 0.69510 0.0
C224 C 0.42828 0.14742 0.71931 0.0
O225 O 0.43539 0.20163 0.42284 0.0
O226 O 0.43649 0.20682 0.58798 0.0
O227 O 0.42067 0.26941 0.48694 0.0
H228 H 0.41135 0.15311 0.29182 0.0
H229 H 0.45264 0.14503 0.29893 0.0
H230 H 0.46765 0.16224 0.34937 0.0
H231 H 0.46562 0.18439 0.40068 0.0
H232 H 0.40804 0.19089 0.37977 0.0
H233 H 0.41006 0.16877 0.32852 0.0
H234 H 0.46236 0.20937 0.42945 0.0
H235 H 0.45496 0.18836 0.45110 0.0
H236 H 0.42906 0.17887 0.52549 0.0
H237 H 0.45091 0.17774 0.50819 0.0
H238 H 0.43208 0.17796 0.48057 0.0
H239 H 0.45619 0.23399 0.42058 0.0
H240 H 0.46986 0.24780 0.44874 0.0
H241 H 0.44884 0.25603 0.43560 0.0
H242 H 0.41753 0.23735 0.57485 0.0
H243 H 0.41296 0.25505 0.54439 0.0
H244 H 0.43338 0.25611 0.56752 0.0
H245 H 0.44232 0.27216 0.52013 0.0
H246 H 0.44789 0.27076 0.47597 0.0
H247 H 0.44702 0.29674 0.49618 0.0
H248 H 0.44266 0.33223 0.49930 0.0
H249 H 0.38454 0.32266 0.48254 0.0
H250 H 0.38891 0.28717 0.47942 0.0
H251 H 0.39754 0.35601 0.49068 0.0
H252 H 0.43956 0.35764 0.50228 0.0
H253 H 0.41125 0.21182 0.56834 0.0
H254 H 0.42096 0.19061 0.55446 0.0
H255 H 0.40255 0.19222 0.59882 0.0
H256 H 0.39307 0.16889 0.64555 0.0
H257 H 0.44863 0.16962 0.68461 0.0
H258 H 0.45807 0.19300 0.63797 0.0
H259 H 0.40106 0.14878 0.69685 0.0
H260 H 0.44206 0.15265 0.71747 0.0
C261 C 0.85891 0.41918 0.71637 0.0
C262 C 0.85483 0.40224 0.69585 0.0
C263 C 0.84280 0.40333 0.66634 0.0
C264 C 0.83855 0.38649 0.64563 0.0
C265 C 0.82645 0.38771 0.61620 0.0
C266 C 0.81862 0.40575 0.60760 0.0
C267 C 0.82291 0.42258 0.62823 0.0
C268 C 0.83499 0.42136 0.65762 0.0
C269 C 0.80617 0.39026 0.55828 0.0
C270 C 0.79565 0.39569 0.52861 0.0
C271 C 0.77609 0.39412 0.52982 0.0
C272 C 0.76563 0.40279 0.50275 0.0
C273 C 0.77463 0.41102 0.47271 0.0
C274 C 0.79419 0.41101 0.47020 0.0
C275 C 0.80471 0.40337 0.49822 0.0
C276 C 0.82432 0.40470 0.49700 0.0
C277 C 0.76707 0.38526 0.55932 0.0
C278 C 0.76406 0.41981 0.44585 0.0
C279 C 0.74617 0.40350 0.50576 0.0
C280 C 0.72362 0.42517 0.51392 0.0
C281 C 0.71136 0.40888 0.50834 0.0
C282 C 0.69202 0.41153 0.50653 0.0
C283 C 0.68498 0.43045 0.51031 0.0
C284 C 0.69726 0.44672 0.51616 0.0
C285 C 0.71659 0.44407 0.51796 0.0
C286 C 0.66565 0.43305 0.50816 0.0
C287 C 0.65348 0.41673 0.50215 0.0
C288 C 0.80335 0.41956 0.44069 0.0
C289 C 0.81375 0.41177 0.38638 0.0
C290 C 0.82030 0.43144 0.38429 0.0
C291 C 0.83305 0.43715 0.35751 0.0
C292 C 0.83923 0.42316 0.33297 0.0
C293 C 0.83263 0.40350 0.33506 0.0
C294 C 0.81987 0.39780 0.36179 0.0
C295 C 0.85209 0.42875 0.30635 0.0
C296 C 0.85830 0.41461 0.28213 0.0
O297 O 0.80693 0.40713 0.57866 0.0
O298 O 0.80195 0.40597 0.41352 0.0
O299 O 0.74257 0.42265 0.51462 0.0
H300 H 0.85303 0.43245 0.70963 0.0
H301 H 0.86069 0.38894 0.70251 0.0
H302 H 0.84434 0.37314 0.65209 0.0
H303 H 0.82329 0.37528 0.60080 0.0
H304 H 0.81714 0.43594 0.62171 0.0
H305 H 0.83815 0.43381 0.67294 0.0
H306 H 0.79957 0.37872 0.57205 0.0
H307 H 0.81951 0.38651 0.55039 0.0
H308 H 0.82850 0.41379 0.47598 0.0
H309 H 0.82957 0.39077 0.49328 0.0
H310 H 0.82938 0.41061 0.52090 0.0
H311 H 0.77620 0.38522 0.58095 0.0
H312 H 0.76308 0.37083 0.55280 0.0
H313 H 0.75528 0.39297 0.56595 0.0
H314 H 0.77298 0.42595 0.42668 0.0
H315 H 0.75619 0.43077 0.45715 0.0
H316 H 0.75517 0.40926 0.43403 0.0
H317 H 0.73994 0.39984 0.48143 0.0
H318 H 0.74128 0.39397 0.52560 0.0
H319 H 0.71661 0.39489 0.50541 0.0
H320 H 0.68292 0.39950 0.50232 0.0
H321 H 0.69203 0.46072 0.51908 0.0
H322 H 0.72572 0.45610 0.52216 0.0
H323 H 0.66036 0.44703 0.51096 0.0
H324 H 0.65881 0.40277 0.49937 0.0
H325 H 0.79721 0.43256 0.43317 0.0
H326 H 0.81735 0.42233 0.44703 0.0
H327 H 0.81581 0.44172 0.40267 0.0
H328 H 0.83795 0.45170 0.35591 0.0
H329 H 0.83724 0.39317 0.31686 0.0
H330 H 0.81506 0.38324 0.36352 0.0
H331 H 0.85703 0.44328 0.30460 0.0
H332 H 0.85334 0.40009 0.28398 0.0
C333 C 0.57622 0.85689 0.71704 0.0
C334 C 0.59230 0.85377 0.69665 0.0
C335 C 0.59127 0.84102 0.66713 0.0
C336 C 0.60726 0.83771 0.64654 0.0
C337 C 0.60610 0.82488 0.61710 0.0
C338 C 0.58897 0.81538 0.60836 0.0
C339 C 0.57300 0.81873 0.62887 0.0
C340 C 0.57415 0.83154 0.65827 0.0
C341 C 0.60369 0.80335 0.55916 0.0
C342 C 0.59853 0.79189 0.52945 0.0
C343 C 0.60002 0.77139 0.53067 0.0
C344 C 0.59179 0.75977 0.50353 0.0
C345 C 0.58398 0.76869 0.47343 0.0
C346 C 0.58398 0.78930 0.47092 0.0
C347 C 0.59124 0.80091 0.49900 0.0
C348 C 0.58997 0.82147 0.49777 0.0
C349 C 0.60844 0.76251 0.56023 0.0
C350 C 0.57564 0.75695 0.44650 0.0
C351 C 0.59113 0.73923 0.50654 0.0
C352 C 0.57057 0.71397 0.51453 0.0
C353 C 0.58602 0.70219 0.50907 0.0
C354 C 0.58351 0.68163 0.50724 0.0
C355 C 0.56555 0.67290 0.51087 0.0
C356 C 0.55011 0.68470 0.51661 0.0
C357 C 0.55262 0.70525 0.51843 0.0
C358 C 0.56309 0.65235 0.50871 0.0
C359 C 0.57859 0.64066 0.50282 0.0
C360 C 0.57587 0.79835 0.44135 0.0
C361 C 0.58326 0.80985 0.38710 0.0
C362 C 0.56459 0.81538 0.38486 0.0
C363 C 0.55916 0.82841 0.35804 0.0
C364 C 0.57245 0.83590 0.33360 0.0
C365 C 0.59111 0.83031 0.33584 0.0
C366 C 0.59652 0.81727 0.36261 0.0
C367 C 0.56714 0.84906 0.30694 0.0
C368 C 0.58056 0.85658 0.28283 0.0
O369 O 0.58767 0.80297 0.57941 0.0
O370 O 0.58877 0.79781 0.41428 0.0
O371 O 0.57295 0.73411 0.51525 0.0
H372 H 0.56363 0.84977 0.71020 0.0
H373 H 0.60492 0.86087 0.70341 0.0
H374 H 0.61993 0.84474 0.65310 0.0
H375 H 0.61790 0.82243 0.60179 0.0
H376 H 0.56032 0.81173 0.62225 0.0
H377 H 0.56234 0.83401 0.67350 0.0
H378 H 0.61464 0.79720 0.57302 0.0
H379 H 0.60724 0.81766 0.55130 0.0
H380 H 0.58134 0.82524 0.47669 0.0
H381 H 0.60319 0.82797 0.49416 0.0
H382 H 0.58436 0.82638 0.52163 0.0
H383 H 0.60847 0.77213 0.58186 0.0
H384 H 0.62214 0.75931 0.55383 0.0
H385 H 0.60112 0.74955 0.56681 0.0
H386 H 0.56981 0.76591 0.42729 0.0
H387 H 0.56524 0.74789 0.45773 0.0
H388 H 0.58566 0.74831 0.43477 0.0
H389 H 0.59460 0.73292 0.48224 0.0
H390 H 0.60017 0.73474 0.52644 0.0
H391 H 0.59930 0.70869 0.50625 0.0
H392 H 0.59494 0.67288 0.50312 0.0
H393 H 0.53682 0.67822 0.51942 0.0
H394 H 0.54119 0.71403 0.52254 0.0
H395 H 0.54982 0.64581 0.51141 0.0
H396 H 0.59184 0.64725 0.50014 0.0
H397 H 0.56353 0.79098 0.43373 0.0
H398 H 0.57324 0.81290 0.44767 0.0
H399 H 0.55483 0.80993 0.40316 0.0
H400 H 0.54535 0.83257 0.35633 0.0
H401 H 0.60091 0.83588 0.31772 0.0
H402 H 0.61035 0.81320 0.36445 0.0
H403 H 0.55334 0.85325 0.30509 0.0
H404 H 0.59434 0.85236 0.28479 0.0
C405 C 0.41744 0.53362 0.50187 0.0
C406 C 0.40296 0.54704 0.50185 0.0
C407 C 0.38847 0.56047 0.50180 0.0
C408 C 0.37399 0.57389 0.50172 0.0
C409 C 0.47593 0.43892 0.50161 0.0
C410 C 0.46271 0.42316 0.50145 0.0
C411 C 0.44949 0.40739 0.50132 0.0
C412 C 0.43628 0.39162 0.50121 0.0
C413 C 0.58407 0.47016 0.50138 0.0
C414 C 0.59856 0.45674 0.50113 0.0
C415 C 0.61304 0.44332 0.50091 0.0
C416 C 0.62752 0.42989 0.50073 0.0
C417 C 0.52558 0.56486 0.50162 0.0
C418 C 0.53880 0.58062 0.50149 0.0
C419 C 0.55202 0.59639 0.50139 0.0
C420 C 0.56522 0.61217 0.50130 0.0
H421 H 0.04120 0.52836 0.86200 0.0
H422 H 0.07082 0.51848 0.86161 0.0
H423 H 0.06260 0.54289 0.82407 0.0
H424 H 0.13591 0.56181 0.74772 0.0
H425 H 0.10629 0.57169 0.74811 0.0
H426 H 0.11451 0.54728 0.78565 0.0
H427 H 0.14134 0.57786 0.77775 0.0
H428 H 0.11171 0.58774 0.77814 0.0
H429 H 0.11993 0.56333 0.81568 0.0
H430 H 0.04662 0.54442 0.89203 0.0
H431 H 0.07624 0.53453 0.89164 0.0
H432 H 0.06803 0.55894 0.85410 0.0
C433 C 0.04950 0.53126 0.88263 0.0
C434 C 0.06775 0.53171 0.87102 0.0
C435 C 0.07099 0.54577 0.84466 0.0
C436 C 0.08960 0.54604 0.83315 0.0
C437 C 0.13303 0.57497 0.75712 0.0
C438 C 0.11478 0.57451 0.76873 0.0
C439 C 0.11155 0.56045 0.79509 0.0
C440 C 0.09293 0.56018 0.80660 0.0
H441 H 0.49470 0.07068 0.88665 0.0
H442 H 0.46384 0.07468 0.89275 0.0
H443 H 0.47946 0.09119 0.84878 0.0
H444 H 0.41724 0.13637 0.77922 0.0
H445 H 0.44810 0.13236 0.77313 0.0
H446 H 0.43248 0.11586 0.81709 0.0
H447 H 0.41309 0.11830 0.75246 0.0
H448 H 0.44394 0.11429 0.74637 0.0
H449 H 0.42832 0.09779 0.79033 0.0
H450 H 0.49054 0.05261 0.85989 0.0
H451 H 0.45969 0.05662 0.86598 0.0
H452 H 0.47530 0.07312 0.82202 0.0
C453 C 0.48573 0.05974 0.88080 0.0
C454 C 0.46885 0.06753 0.87179 0.0
C455 C 0.47041 0.08028 0.84291 0.0
C456 C 0.45314 0.08806 0.83409 0.0
C457 C 0.42205 0.12923 0.75831 0.0
C458 C 0.43893 0.12145 0.76732 0.0
C459 C 0.43737 0.10870 0.79620 0.0
C460 C 0.45464 0.10091 0.80502 0.0
H461 H 0.95948 0.46676 0.12954 0.0
H462 H 0.93034 0.45945 0.11015 0.0
H463 H 0.93827 0.45136 0.16678 0.0
H464 H 0.86586 0.41299 0.22140 0.0
H465 H 0.89500 0.42030 0.24079 0.0
H466 H 0.88707 0.42840 0.18416 0.0
H467 H 0.85926 0.43399 0.23517 0.0
H468 H 0.88841 0.44130 0.25456 0.0
H469 H 0.88047 0.44940 0.19793 0.0
H470 H 0.95289 0.48776 0.14331 0.0
H471 H 0.92374 0.48045 0.12392 0.0
H472 H 0.93168 0.47236 0.18055 0.0
C473 C 0.95071 0.47741 0.12503 0.0
C474 C 0.93271 0.46985 0.12855 0.0
C475 C 0.92942 0.46197 0.16226 0.0
C476 C 0.91106 0.45435 0.16541 0.0
C477 C 0.86804 0.42335 0.23968 0.0
C478 C 0.88604 0.43091 0.23616 0.0
C479 C 0.88933 0.43878 0.20245 0.0
C480 C 0.90768 0.44641 0.19930 0.0
H481 H 0.52759 0.93132 0.08610 0.0
H482 H 0.51525 0.92837 0.14101 0.0
H483 H 0.54080 0.91106 0.12719 0.0
H484 H 0.55458 0.86749 0.26590 0.0
H485 H 0.56691 0.87043 0.21099 0.0
H486 H 0.54136 0.88774 0.22480 0.0
H487 H 0.56785 0.88547 0.27949 0.0
H488 H 0.58019 0.88841 0.22458 0.0
H489 H 0.55464 0.90572 0.23839 0.0
H490 H 0.54086 0.94929 0.09969 0.0
H491 H 0.52853 0.94635 0.15460 0.0
H492 H 0.55408 0.92904 0.14078 0.0
C493 C 0.52856 0.94249 0.10304 0.0
C494 C 0.52764 0.93520 0.13730 0.0
C495 C 0.54176 0.92221 0.14429 0.0
C496 C 0.54063 0.91494 0.17921 0.0
C497 C 0.56688 0.87430 0.26254 0.0
C498 C 0.56780 0.88158 0.22829 0.0
C499 C 0.55368 0.89457 0.22130 0.0
C500 C 0.55481 0.90185 0.18637 0.0
H501 H 0.49598 0.06650 0.12735 0.0
H502 H 0.46867 0.05605 0.15138 0.0
H503 H 0.48085 0.08613 0.16697 0.0
H504 H 0.42251 0.11468 0.27097 0.0
H505 H 0.44981 0.12513 0.24694 0.0
H506 H 0.43764 0.09506 0.23136 0.0
H507 H 0.41148 0.12443 0.23858 0.0
H508 H 0.43878 0.13488 0.21455 0.0
H509 H 0.42660 0.10480 0.19897 0.0
H510 H 0.48494 0.07625 0.09496 0.0
H511 H 0.45764 0.06580 0.11899 0.0
H512 H 0.46982 0.09587 0.13457 0.0
C513 C 0.48461 0.06530 0.11234 0.0
C514 C 0.46918 0.06707 0.13386 0.0
C515 C 0.46942 0.08492 0.15203 0.0
C516 C 0.45364 0.08649 0.17379 0.0
C517 C 0.42284 0.12563 0.25360 0.0
C518 C 0.43827 0.12386 0.23208 0.0
C519 C 0.43804 0.10601 0.21390 0.0
C520 C 0.45381 0.10444 0.19214 0.0
H521 H 0.04175 0.53402 0.13415 0.0
H522 H 0.06914 0.54591 0.11260 0.0
H523 H 0.06288 0.54966 0.17152 0.0
H524 H 0.13333 0.59320 0.22419 0.0
H525 H 0.10595 0.58131 0.24574 0.0
H526 H 0.11220 0.57756 0.18682 0.0
H527 H 0.14265 0.57257 0.23242 0.0
H528 H 0.11526 0.56068 0.25397 0.0
H529 H 0.12152 0.55693 0.19505 0.0
H530 H 0.05107 0.51340 0.14238 0.0
H531 H 0.07846 0.52528 0.12083 0.0
H532 H 0.07220 0.52904 0.17975 0.0
C533 C 0.05138 0.52489 0.12621 0.0
C534 C 0.06866 0.53434 0.12892 0.0
C535 C 0.07258 0.54057 0.16357 0.0
C536 C 0.09019 0.55015 0.16587 0.0
C537 C 0.13303 0.58170 0.24036 0.0
C538 C 0.11575 0.57225 0.23766 0.0
C539 C 0.11182 0.56602 0.20300 0.0
C540 C 0.09421 0.55644 0.20070 0.0
H541 H 0.95203 0.48987 0.85902 0.0
H542 H 0.92433 0.47890 0.88060 0.0
H543 H 0.93070 0.47435 0.82191 0.0
H544 H 0.85952 0.43201 0.76978 0.0
H545 H 0.88722 0.44297 0.74821 0.0
H546 H 0.88085 0.44752 0.80689 0.0
H547 H 0.86832 0.41123 0.77888 0.0
H548 H 0.89603 0.42220 0.75731 0.0
H549 H 0.88966 0.42675 0.81599 0.0
H550 H 0.96084 0.46909 0.86813 0.0
H551 H 0.93314 0.45812 0.88970 0.0
H552 H 0.93951 0.45357 0.83101 0.0
C553 C 0.95141 0.47855 0.87560 0.0
C554 C 0.93394 0.46950 0.87298 0.0
C555 C 0.93000 0.46300 0.83850 0.0
C556 C 0.91220 0.45383 0.83629 0.0
C557 C 0.86895 0.42254 0.76230 0.0
C558 C 0.88641 0.43159 0.76492 0.0
C559 C 0.89036 0.43810 0.79941 0.0
C560 C 0.90816 0.44726 0.80162 0.0
H561 H 0.51485 0.95503 0.85808 0.0
H562 H 0.51841 0.92377 0.87552 0.0
H563 H 0.52877 0.93319 0.82075 0.0
H564 H 0.56029 0.85734 0.76391 0.0
H565 H 0.55673 0.88860 0.74648 0.0
H566 H 0.54638 0.87918 0.80125 0.0
H567 H 0.58030 0.86341 0.78069 0.0
H568 H 0.57673 0.89468 0.76326 0.0
H569 H 0.56638 0.88525 0.81802 0.0
H570 H 0.53485 0.96111 0.87486 0.0
H571 H 0.53841 0.92985 0.89229 0.0
H572 H 0.54877 0.93927 0.83752 0.0
C573 C 0.52381 0.95206 0.87730 0.0
C574 C 0.52943 0.93302 0.87296 0.0
C575 C 0.53775 0.93013 0.83997 0.0
C576 C 0.54338 0.91071 0.83598 0.0
C577 C 0.57134 0.86639 0.76148 0.0
C578 C 0.56572 0.88542 0.76581 0.0
C579 C 0.55740 0.88831 0.79881 0.0
C580 C 0.55176 0.90773 0.80280 0.0
