data_{}
_symmetry_space_group_name_H-M    P1
_symmetry_Int_Tables_number       1
_symmetry_cell_setting            triclinic
loop_
_symmetry_equiv_pos_as_xyz
'x, y, z'
_cell_length_a     87.729
_cell_length_b     84.553
_cell_length_c     39.742
_cell_angle_alpha  89.857
_cell_angle_beta   90.031
_cell_angle_gamma  123.086
loop_
_atom_site_label
_atom_site_type_symbol
_atom_site_fract_x
_atom_site_fract_y
_atom_site_fract_z
_atom_type_partial_charge
C0 C 0.93552 0.89387 0.00309 0.0
C1 C 0.94187 0.90633 0.03479 0.0
C2 C 0.95826 0.92691 0.03265 0.0
C3 C 0.96482 0.93954 0.06415 0.0
C4 C 0.98126 0.96011 0.06176 0.0
C5 C 0.99111 0.96796 0.02791 0.0
C6 C 0.98451 0.95535 0.99642 0.0
C7 C 0.96810 0.93482 0.99881 0.0
C8 C 0.00995 0.99990 0.05682 0.0
C9 C 0.02493 0.01943 0.04654 0.0
C10 C 0.04502 0.02596 0.04941 0.0
C11 C 0.05970 0.04474 0.03307 0.0
C12 C 0.05456 0.05795 0.01764 0.0
C13 C 0.03459 0.05211 0.01773 0.0
C14 C 0.01975 0.03281 0.03215 0.0
C15 C 0.99990 0.02626 0.02973 0.0
C16 C 0.05023 0.01304 0.06602 0.0
C17 C 0.06933 0.07665 0.00109 0.0
C18 C 0.07952 0.05028 0.03167 0.0
C19 C 0.10257 0.05446 0.99099 0.0
C20 C 0.11548 0.06179 0.02144 0.0
C21 C 0.13587 0.06995 0.01640 0.0
C22 C 0.14331 0.07076 0.98092 0.0
C23 C 0.13036 0.06327 0.95049 0.0
C24 C 0.10996 0.05512 0.95554 0.0
C25 C 0.16374 0.07910 0.97596 0.0
C26 C 0.17662 0.08663 0.00649 0.0
C27 C 0.02923 0.06498 0.00171 0.0
C28 C 0.02527 0.09070 0.01627 0.0
C29 C 0.01940 0.08972 0.97943 0.0
C30 C 0.00987 0.09973 0.96874 0.0
C31 C 0.00619 0.11065 0.99495 0.0
C32 C 0.01212 0.11166 0.03176 0.0
C33 C 0.02167 0.10167 0.04243 0.0
C34 C 0.99651 0.12053 0.98449 0.0
C35 C 0.99277 0.13127 0.01097 0.0
O36 O 0.00707 0.98810 0.02523 0.0
O37 O 0.03378 0.08014 0.02713 0.0
O38 O 0.08273 0.04705 0.99579 0.0
H39 H 0.94295 0.89991 0.97819 0.0
H40 H 0.93448 0.90034 0.05974 0.0
H41 H 0.95752 0.93369 0.08921 0.0
H42 H 0.98613 0.96950 0.08502 0.0
H43 H 0.99179 0.96123 0.97136 0.0
H44 H 0.96322 0.92546 0.97553 0.0
H45 H 0.01462 0.99400 0.07843 0.0
H46 H 0.99702 0.99860 0.06387 0.0
H47 H 0.99832 0.03634 0.01268 0.0
H48 H 0.99418 0.02615 0.05585 0.0
H49 H 0.99143 0.01142 0.01872 0.0
H50 H 0.03792 0.99786 0.06616 0.0
H51 H 0.05474 0.01786 0.09303 0.0
H52 H 0.06185 0.01388 0.05153 0.0
H53 H 0.06279 0.08393 0.98959 0.0
H54 H 0.07639 0.07354 0.98053 0.0
H55 H 0.07975 0.08623 0.02080 0.0
H56 H 0.08905 0.06582 0.03846 0.0
H57 H 0.08169 0.04111 0.04953 0.0
H58 H 0.10996 0.06125 0.04767 0.0
H59 H 0.14547 0.07543 0.03890 0.0
H60 H 0.13586 0.06381 0.92425 0.0
H61 H 0.10035 0.04964 0.93304 0.0
H62 H 0.16933 0.07972 0.94975 0.0
H63 H 0.17099 0.08598 0.03266 0.0
H64 H 0.03701 0.07154 0.97731 0.0
H65 H 0.01396 0.05639 0.99659 0.0
H66 H 0.02200 0.08148 0.96018 0.0
H67 H 0.00547 0.09901 0.94149 0.0
H68 H 0.00937 0.11975 0.05110 0.0
H69 H 0.02596 0.10229 0.06970 0.0
H70 H 0.99210 0.11988 0.95727 0.0
H71 H 0.99719 0.13188 0.03816 0.0
C72 C 0.86102 0.37457 0.78108 0.0
C73 C 0.84784 0.35701 0.80228 0.0
C74 C 0.85506 0.35176 0.83278 0.0
C75 C 0.84205 0.33420 0.85418 0.0
C76 C 0.84942 0.32904 0.88459 0.0
C77 C 0.86977 0.34143 0.89347 0.0
C78 C 0.88274 0.35900 0.87216 0.0
C79 C 0.87538 0.36416 0.84179 0.0
C80 C 0.86222 0.32085 0.94444 0.0
C81 C 0.87257 0.32035 0.97510 0.0
C82 C 0.88128 0.30877 0.97384 0.0
C83 C 0.89453 0.31125 0.00181 0.0
C84 C 0.89730 0.32343 0.03286 0.0
C85 C 0.88716 0.33356 0.03547 0.0
C86 C 0.87481 0.33205 0.00651 0.0
C87 C 0.86586 0.34344 0.00779 0.0
C88 C 0.87795 0.29602 0.94335 0.0
C89 C 0.91070 0.32596 0.06062 0.0
C90 C 0.90524 0.30181 0.99869 0.0
C91 C 0.93648 0.30987 0.99024 0.0
C92 C 0.92812 0.28866 0.99600 0.0
C93 C 0.94052 0.28105 0.99786 0.0
C94 C 0.96126 0.29465 0.99395 0.0
C95 C 0.96959 0.31584 0.98790 0.0
C96 C 0.95719 0.32346 0.98605 0.0
C97 C 0.97362 0.28699 0.99616 0.0
C98 C 0.96518 0.26579 0.00236 0.0
C99 C 0.89014 0.34610 0.06597 0.0
C100 C 0.87772 0.34440 0.12211 0.0
C101 C 0.89209 0.36573 0.12428 0.0
C102 C 0.89065 0.37755 0.15196 0.0
C103 C 0.87481 0.36800 0.17733 0.0
C104 C 0.86048 0.34665 0.17517 0.0
C105 C 0.86193 0.33483 0.14753 0.0
C106 C 0.87320 0.37976 0.20484 0.0
C107 C 0.85722 0.37009 0.22988 0.0
O108 O 0.87706 0.33662 0.92338 0.0
O109 O 0.87859 0.33299 0.09406 0.0
O110 O 0.92439 0.31740 0.98953 0.0
H111 H 0.87605 0.38362 0.78804 0.0
H112 H 0.83280 0.34793 0.79541 0.0
H113 H 0.82699 0.32503 0.84751 0.0
H114 H 0.83983 0.31607 0.90051 0.0
H115 H 0.89779 0.36819 0.87889 0.0
H116 H 0.88498 0.37714 0.82595 0.0
H117 H 0.85521 0.30691 0.93020 0.0
H118 H 0.85193 0.32435 0.95261 0.0
H119 H 0.87191 0.35389 0.02951 0.0
H120 H 0.85056 0.33345 0.01164 0.0
H121 H 0.86858 0.35144 0.98308 0.0
H122 H 0.87318 0.30071 0.92100 0.0
H123 H 0.86698 0.28079 0.95008 0.0
H124 H 0.89102 0.29693 0.93648 0.0
H125 H 0.91163 0.33618 0.08043 0.0
H126 H 0.92468 0.33186 0.04893 0.0
H127 H 0.90578 0.31172 0.07282 0.0
H128 H 0.90516 0.29524 0.02383 0.0
H129 H 0.89917 0.29058 0.97818 0.0
H130 H 0.91277 0.27863 0.99990 0.0
H131 H 0.93437 0.26535 0.00220 0.0
H132 H 0.98494 0.32590 0.98489 0.0
H133 H 0.96333 0.33916 0.98172 0.0
H134 H 0.98898 0.29699 0.99326 0.0
H135 H 0.94981 0.25583 0.00524 0.0
H136 H 0.90506 0.35478 0.07374 0.0
H137 H 0.88539 0.35589 0.05943 0.0
H138 H 0.90370 0.37277 0.10527 0.0
H139 H 0.90125 0.39336 0.15361 0.0
H140 H 0.84876 0.33962 0.19398 0.0
H141 H 0.85128 0.31905 0.14574 0.0
H142 H 0.88377 0.39557 0.20666 0.0
H143 H 0.84667 0.35427 0.22797 0.0
C144 C 0.55868 0.23145 0.22562 0.0
C145 C 0.55340 0.21389 0.20457 0.0
C146 C 0.54069 0.20867 0.17407 0.0
C147 C 0.53523 0.19112 0.15282 0.0
C148 C 0.52247 0.18599 0.12240 0.0
C149 C 0.51519 0.19840 0.11337 0.0
C150 C 0.52069 0.21596 0.13454 0.0
C151 C 0.53343 0.22109 0.16491 0.0
C152 C 0.50112 0.17785 0.06255 0.0
C153 C 0.49028 0.17738 0.03185 0.0
C154 C 0.46939 0.16581 0.03314 0.0
C155 C 0.45879 0.16833 0.00510 0.0
C156 C 0.46887 0.18051 0.97398 0.0
C157 C 0.48968 0.19063 0.97135 0.0
C158 C 0.50039 0.18909 0.00010 0.0
C159 C 0.52132 0.20046 0.99990 0.0
C160 C 0.45926 0.15305 0.06372 0.0
C161 C 0.45817 0.18307 0.94615 0.0
C162 C 0.43814 0.15890 0.00823 0.0
C163 C 0.41539 0.16698 0.01651 0.0
C164 C 0.40143 0.14579 0.01090 0.0
C165 C 0.38102 0.13819 0.00903 0.0
C166 C 0.37462 0.15181 0.01278 0.0
C167 C 0.38859 0.17300 0.01868 0.0
C168 C 0.40900 0.18059 0.02054 0.0
C169 C 0.35421 0.14417 0.01056 0.0
C170 C 0.34033 0.12298 0.00451 0.0
C171 C 0.49994 0.20318 0.94076 0.0
C172 C 0.51062 0.20150 0.88469 0.0
C173 C 0.51871 0.22283 0.88235 0.0
C174 C 0.53262 0.23466 0.85460 0.0
C175 C 0.53843 0.22511 0.82935 0.0
C176 C 0.53028 0.20375 0.83169 0.0
C177 C 0.51635 0.19193 0.85938 0.0
C178 C 0.55245 0.23688 0.80178 0.0
C179 C 0.55827 0.22721 0.77686 0.0
O180 O 0.50287 0.19362 0.08346 0.0
O181 O 0.49770 0.19008 0.91280 0.0
O182 O 0.43540 0.17450 0.01723 0.0
H183 H 0.55319 0.24051 0.21855 0.0
H184 H 0.55886 0.20479 0.21156 0.0
H185 H 0.54061 0.18193 0.15960 0.0
H186 H 0.51842 0.17302 0.10660 0.0
H187 H 0.51534 0.22517 0.12770 0.0
H188 H 0.53749 0.23407 0.18064 0.0
H189 H 0.49342 0.16390 0.07689 0.0
H190 H 0.51510 0.18134 0.05441 0.0
H191 H 0.52631 0.21092 0.97726 0.0
H192 H 0.52611 0.19047 0.99533 0.0
H193 H 0.52701 0.20845 0.02371 0.0
H194 H 0.46894 0.15773 0.08606 0.0
H195 H 0.45419 0.13782 0.05711 0.0
H196 H 0.44715 0.15397 0.07052 0.0
H197 H 0.46802 0.19330 0.92627 0.0
H198 H 0.45041 0.18899 0.95775 0.0
H199 H 0.44812 0.16885 0.93404 0.0
H200 H 0.43133 0.15235 0.98313 0.0
H201 H 0.43237 0.14766 0.02882 0.0
H202 H 0.40621 0.13574 0.00798 0.0
H203 H 0.37065 0.12250 0.00480 0.0
H204 H 0.38383 0.18306 0.02157 0.0
H205 H 0.41939 0.19629 0.02476 0.0
H206 H 0.34938 0.15418 0.01335 0.0
H207 H 0.34520 0.11300 0.00175 0.0
H208 H 0.49417 0.21188 0.93289 0.0
H209 H 0.51498 0.21296 0.94728 0.0
H210 H 0.51450 0.22988 0.90126 0.0
H211 H 0.53868 0.25047 0.85282 0.0
H212 H 0.53460 0.19673 0.81297 0.0
H213 H 0.51039 0.17615 0.86130 0.0
H214 H 0.55854 0.25270 0.79984 0.0
H215 H 0.55216 0.21139 0.77890 0.0
C216 C 0.67364 0.49274 0.78353 0.0
C217 C 0.69034 0.49748 0.80467 0.0
C218 C 0.69587 0.51074 0.83512 0.0
C219 C 0.71257 0.51566 0.85646 0.0
C220 C 0.71802 0.52899 0.88684 0.0
C221 C 0.70676 0.53737 0.89575 0.0
C222 C 0.69004 0.53239 0.87449 0.0
C223 C 0.68460 0.51909 0.84416 0.0
C224 C 0.72671 0.55130 0.94662 0.0
C225 C 0.72769 0.56282 0.97726 0.0
C226 C 0.73957 0.58449 0.97593 0.0
C227 C 0.73775 0.59589 0.00389 0.0
C228 C 0.72583 0.58576 0.03499 0.0
C229 C 0.71530 0.56411 0.03767 0.0
C230 C 0.71621 0.55262 0.00873 0.0
C231 C 0.70451 0.53090 0.01008 0.0
C232 C 0.75204 0.59464 0.94538 0.0
C233 C 0.72396 0.59728 0.06274 0.0
C234 C 0.74762 0.61742 0.00010 0.0
C235 C 0.74120 0.64206 0.99224 0.0
C236 C 0.76175 0.65586 0.99791 0.0
C237 C 0.76989 0.67722 0.99990 0.0
C238 C 0.75746 0.68473 0.99583 0.0
C239 C 0.73692 0.67091 0.98988 0.0
C240 C 0.72878 0.64955 0.98809 0.0
C241 C 0.76564 0.70608 0.99798 0.0
C242 C 0.78619 0.71979 0.00409 0.0
C243 C 0.70302 0.55380 0.06823 0.0
C244 C 0.70406 0.54233 0.12438 0.0
C245 C 0.68367 0.53478 0.12663 0.0
C246 C 0.67189 0.52055 0.15438 0.0
C247 C 0.68054 0.51388 0.17972 0.0
C248 C 0.70094 0.52148 0.17748 0.0
C249 C 0.71272 0.53573 0.14978 0.0
C250 C 0.66881 0.49952 0.20730 0.0
C251 C 0.67756 0.49283 0.23231 0.0
O252 O 0.71185 0.55024 0.92561 0.0
O253 O 0.71541 0.55552 0.09627 0.0
O254 O 0.73315 0.62113 0.99159 0.0
H255 H 0.66543 0.49904 0.79051 0.0
H256 H 0.69859 0.49120 0.79777 0.0
H257 H 0.72090 0.50947 0.84978 0.0
H258 H 0.73036 0.53264 0.90270 0.0
H259 H 0.68169 0.53856 0.88124 0.0
H260 H 0.67224 0.51543 0.82838 0.0
H261 H 0.74016 0.55880 0.93233 0.0
H262 H 0.72273 0.53659 0.95482 0.0
H263 H 0.69445 0.52611 0.03184 0.0
H264 H 0.71362 0.52530 0.01390 0.0
H265 H 0.69674 0.52526 0.98541 0.0
H266 H 0.74718 0.58458 0.92306 0.0
H267 H 0.76656 0.59927 0.95205 0.0
H268 H 0.75178 0.60759 0.93850 0.0
H269 H 0.71389 0.58730 0.08260 0.0
H270 H 0.71882 0.60585 0.05106 0.0
H271 H 0.73779 0.60727 0.07489 0.0
H272 H 0.75409 0.62433 0.02581 0.0
H273 H 0.75844 0.62301 0.98015 0.0
H274 H 0.77091 0.65026 0.00010 0.0
H275 H 0.78510 0.68747 0.00398 0.0
H276 H 0.72773 0.67649 0.98689 0.0
H277 H 0.71355 0.63928 0.98382 0.0
H278 H 0.75651 0.71173 0.99510 0.0
H279 H 0.79528 0.71410 0.00695 0.0
H280 H 0.69517 0.56039 0.07602 0.0
H281 H 0.69312 0.53828 0.06174 0.0
H282 H 0.67729 0.53962 0.10764 0.0
H283 H 0.65678 0.51490 0.15609 0.0
H284 H 0.70731 0.51651 0.19627 0.0
H285 H 0.72780 0.54128 0.14793 0.0
H286 H 0.65369 0.49384 0.20917 0.0
H287 H 0.69269 0.49855 0.23034 0.0
N288 N 0.68806 0.35574 0.60559 0.0
N289 N 0.72823 0.37164 0.58431 0.0
N290 N 0.68678 0.35405 0.40407 0.0
O291 O 0.69190 0.38984 0.43419 0.0
O292 O 0.71678 0.40006 0.40477 0.0
O293 O 0.72258 0.39334 0.47557 0.0
O294 O 0.69386 0.35748 0.47662 0.0
O295 O 0.69279 0.39102 0.57347 0.0
O296 O 0.71804 0.40172 0.60190 0.0
O297 O 0.72294 0.39381 0.53141 0.0
O298 O 0.69422 0.35795 0.53277 0.0
Zn299 Zn 0.70719 0.37536 0.43546 0.0
Zn300 Zn 0.70807 0.37651 0.57273 0.0
H301 H 0.71436 0.34426 0.44017 0.0
H302 H 0.73704 0.33904 0.43047 0.0
H303 H 0.76759 0.39131 0.39406 0.0
H304 H 0.74457 0.39531 0.40526 0.0
H305 H 0.70361 0.35238 0.63617 0.0
H306 H 0.68113 0.32821 0.66799 0.0
H307 H 0.64465 0.33123 0.61264 0.0
H308 H 0.66780 0.35446 0.58168 0.0
H309 H 0.71519 0.34535 0.56958 0.0
H310 H 0.73799 0.34029 0.57918 0.0
H311 H 0.76898 0.39315 0.61224 0.0
H312 H 0.74582 0.39696 0.60121 0.0
H313 H 0.70194 0.35016 0.37343 0.0
H314 H 0.67906 0.32547 0.34331 0.0
H315 H 0.64329 0.32943 0.39906 0.0
H316 H 0.66682 0.35317 0.42837 0.0
C317 C 0.72529 0.35393 0.43090 0.0
C318 C 0.73889 0.35065 0.42503 0.0
C319 C 0.75524 0.36473 0.41116 0.0
C320 C 0.75690 0.38147 0.40368 0.0
C321 C 0.74298 0.38375 0.41035 0.0
C322 C 0.69153 0.34784 0.63117 0.0
C323 C 0.67811 0.33339 0.65059 0.0
C324 C 0.65999 0.32661 0.64379 0.0
C325 C 0.65656 0.33513 0.61766 0.0
C326 C 0.67052 0.34918 0.59937 0.0
C327 C 0.70429 0.40169 0.41563 0.0
C328 C 0.72623 0.35516 0.57814 0.0
C329 C 0.73990 0.35199 0.58395 0.0
C330 C 0.75643 0.36629 0.59679 0.0
C331 C 0.75817 0.38315 0.60334 0.0
C332 C 0.74416 0.38532 0.59677 0.0
C333 C 0.68992 0.34572 0.37887 0.0
C334 C 0.67626 0.33094 0.36047 0.0
C335 C 0.65823 0.32429 0.36793 0.0
C336 C 0.65514 0.33324 0.39364 0.0
C337 C 0.66932 0.34759 0.41093 0.0
C338 C 0.70541 0.40317 0.59116 0.0
C339 C 0.71674 0.38611 0.50374 0.0
C340 C 0.70019 0.36545 0.50444 0.0
N341 N 0.72721 0.37029 0.42381 0.0
H342 H 0.84416 0.39038 0.75516 0.0
H343 H 0.77100 0.37532 0.63533 0.0
H344 H 0.79670 0.37344 0.61342 0.0
H345 H 0.79528 0.38028 0.67473 0.0
H346 H 0.82178 0.37850 0.65361 0.0
H347 H 0.81998 0.38532 0.71478 0.0
H348 H 0.84629 0.38367 0.69490 0.0
H349 H 0.83147 0.36556 0.76422 0.0
H350 H 0.75831 0.35050 0.64439 0.0
H351 H 0.78400 0.34861 0.62248 0.0
H352 H 0.78259 0.35546 0.68379 0.0
H353 H 0.80908 0.35368 0.66267 0.0
H354 H 0.80728 0.36050 0.72384 0.0
H355 H 0.83359 0.35885 0.70396 0.0
C356 C 0.84208 0.37677 0.74814 0.0
C357 C 0.76844 0.36161 0.62752 0.0
C358 C 0.78635 0.36228 0.62997 0.0
C359 C 0.79293 0.36661 0.66725 0.0
C360 C 0.81137 0.36734 0.67006 0.0
C361 C 0.81775 0.37168 0.70751 0.0
C362 C 0.83582 0.37249 0.71122 0.0
H363 H 0.55931 0.23547 0.27721 0.0
H364 H 0.63613 0.31461 0.37630 0.0
H365 H 0.64165 0.29269 0.34447 0.0
H366 H 0.61082 0.28837 0.34343 0.0
H367 H 0.61576 0.26564 0.31054 0.0
H368 H 0.58509 0.26170 0.31000 0.0
H369 H 0.58945 0.23902 0.27729 0.0
H370 H 0.56604 0.25059 0.24102 0.0
H371 H 0.64286 0.32972 0.34010 0.0
H372 H 0.64838 0.30780 0.30827 0.0
H373 H 0.61755 0.30349 0.30723 0.0
H374 H 0.62249 0.28076 0.27435 0.0
H375 H 0.59182 0.27681 0.27380 0.0
H376 H 0.59618 0.25414 0.24110 0.0
C377 C 0.56760 0.24011 0.25419 0.0
C378 C 0.64494 0.31977 0.35394 0.0
C379 C 0.63978 0.30286 0.33092 0.0
C380 C 0.61941 0.29331 0.32078 0.0
C381 C 0.61396 0.27588 0.29708 0.0
C382 C 0.59355 0.26650 0.28718 0.0
C383 C 0.58772 0.24934 0.26392 0.0
H384 H 0.58324 0.24191 0.77855 0.0
H385 H 0.66007 0.32169 0.67986 0.0
H386 H 0.63710 0.29214 0.64963 0.0
H387 H 0.63459 0.29520 0.71224 0.0
H388 H 0.61083 0.26477 0.68256 0.0
H389 H 0.60868 0.26826 0.74515 0.0
H390 H 0.58502 0.23807 0.71678 0.0
H391 H 0.56966 0.25149 0.77102 0.0
H392 H 0.64648 0.33127 0.67233 0.0
H393 H 0.62352 0.30172 0.64210 0.0
H394 H 0.62100 0.30478 0.70471 0.0
H395 H 0.59724 0.27435 0.67503 0.0
H396 H 0.59510 0.27784 0.73762 0.0
H397 H 0.57143 0.24765 0.70925 0.0
C398 C 0.57313 0.24160 0.76174 0.0
C399 C 0.65047 0.32191 0.66241 0.0
C400 C 0.63334 0.30173 0.65931 0.0
C401 C 0.62477 0.29519 0.69505 0.0
C402 C 0.60712 0.27443 0.69215 0.0
C403 C 0.59873 0.26812 0.72814 0.0
C404 C 0.58139 0.24780 0.72626 0.0
H405 H 0.65707 0.46000 0.28267 0.0
H406 H 0.68520 0.40981 0.39838 0.0
H407 H 0.70080 0.42147 0.34270 0.0
H408 H 0.67601 0.42644 0.35989 0.0
H409 H 0.69151 0.43859 0.30283 0.0
H410 H 0.66667 0.44334 0.32074 0.0
H411 H 0.68163 0.45551 0.26433 0.0
H412 H 0.67377 0.48213 0.30150 0.0
H413 H 0.70190 0.43194 0.41721 0.0
H414 H 0.71750 0.44359 0.36153 0.0
H415 H 0.69271 0.44856 0.37871 0.0
H416 H 0.70821 0.46072 0.32165 0.0
H417 H 0.68337 0.46547 0.33956 0.0
H418 H 0.69833 0.47764 0.28315 0.0
C419 C 0.67116 0.47226 0.28097 0.0
C420 C 0.69947 0.42174 0.39746 0.0
C421 C 0.70329 0.43152 0.36280 0.0
C422 C 0.69021 0.43851 0.35862 0.0
C423 C 0.69403 0.44860 0.32302 0.0
C424 C 0.68082 0.45550 0.31927 0.0
C425 C 0.68418 0.46547 0.28462 0.0
H426 H 0.67318 0.48194 0.71153 0.0
H427 H 0.70106 0.43196 0.59531 0.0
H428 H 0.71786 0.44499 0.64951 0.0
H429 H 0.69196 0.44852 0.63396 0.0
H430 H 0.70867 0.46206 0.68953 0.0
H431 H 0.68271 0.46537 0.67327 0.0
H432 H 0.69885 0.47888 0.72823 0.0
H433 H 0.65745 0.45997 0.73212 0.0
H434 H 0.68533 0.40999 0.61589 0.0
H435 H 0.70212 0.42302 0.67009 0.0
H436 H 0.67623 0.42655 0.65455 0.0
H437 H 0.69293 0.44008 0.71012 0.0
H438 H 0.66698 0.44340 0.69386 0.0
H439 H 0.68312 0.45691 0.74882 0.0
C440 C 0.67139 0.47256 0.73248 0.0
C441 C 0.69945 0.42225 0.61548 0.0
C442 C 0.70380 0.43258 0.64957 0.0
C443 C 0.69028 0.43895 0.65448 0.0
C444 C 0.69463 0.44961 0.68950 0.0
C445 C 0.68098 0.45588 0.69399 0.0
C446 C 0.68485 0.46639 0.72810 0.0
H447 H 0.85682 0.38429 0.29366 0.0
H448 H 0.78346 0.36854 0.41363 0.0
H449 H 0.78316 0.37885 0.35470 0.0
H450 H 0.80766 0.37380 0.37371 0.0
H451 H 0.80795 0.38432 0.31334 0.0
H452 H 0.83226 0.37914 0.33311 0.0
H453 H 0.83299 0.38951 0.27344 0.0
H454 H 0.84299 0.36007 0.28080 0.0
H455 H 0.76963 0.34432 0.40077 0.0
H456 H 0.76933 0.35463 0.34184 0.0
H457 H 0.79383 0.34957 0.36085 0.0
H458 H 0.79412 0.36010 0.30048 0.0
H459 H 0.81843 0.35492 0.32025 0.0
H460 H 0.81916 0.36529 0.26058 0.0
C461 C 0.84664 0.37449 0.27536 0.0
C462 C 0.77279 0.35863 0.39613 0.0
C463 C 0.77980 0.36449 0.35970 0.0
C464 C 0.79719 0.36393 0.35586 0.0
C465 C 0.80453 0.36995 0.31843 0.0
C466 C 0.82192 0.36930 0.31506 0.0
C467 C 0.82949 0.37513 0.27864 0.0
C468 C 0.98143 0.18321 0.00392 0.0
C469 C 0.99990 0.20265 0.00485 0.0
C470 C 0.99781 0.21984 0.00487 0.0
C471 C 0.97828 0.21535 0.00399 0.0
C472 C 0.96917 0.20157 0.03375 0.0
C473 C 0.97086 0.18437 0.03371 0.0
C474 C 0.97173 0.18502 0.97327 0.0
C475 C 0.97004 0.20222 0.97331 0.0
C476 C 0.98313 0.16602 0.00386 0.0
C477 C 0.98484 0.14883 0.00377 0.0
C478 C 0.97659 0.23255 0.00401 0.0
C479 C 0.97492 0.24975 0.00400 0.0
H480 H 0.01297 0.20361 0.00546 0.0
H481 H 0.01057 0.23473 0.00551 0.0
H482 H 0.96179 0.20445 0.05399 0.0
H483 H 0.96448 0.17351 0.05488 0.0
H484 H 0.96634 0.17401 0.95242 0.0
H485 H 0.96303 0.20455 0.95150 0.0
C486 C 0.24057 0.10175 0.00289 0.0
C487 C 0.25430 0.11702 0.02736 0.0
C488 C 0.27348 0.12057 0.02735 0.0
C489 C 0.27642 0.10839 0.00284 0.0
C490 C 0.27000 0.11175 0.96907 0.0
C491 C 0.25081 0.10820 0.96909 0.0
C492 C 0.24159 0.08466 0.01216 0.0
C493 C 0.26078 0.08821 0.01214 0.0
C494 C 0.22138 0.09819 0.00294 0.0
C495 C 0.20219 0.09463 0.00303 0.0
C496 C 0.29561 0.11194 0.00284 0.0
C497 C 0.31479 0.11547 0.00286 0.0
H498 H 0.24997 0.12487 0.04400 0.0
H499 H 0.28442 0.13165 0.04478 0.0
H500 H 0.27930 0.11657 0.94611 0.0
H501 H 0.24507 0.11037 0.94506 0.0
H502 H 0.22863 0.07052 0.01849 0.0
H503 H 0.26268 0.07626 0.01874 0.0
C504 C 0.87469 0.82543 0.00500 0.0
C505 C 0.86472 0.81875 0.97102 0.0
C506 C 0.84682 0.79915 0.97117 0.0
C507 C 0.84123 0.78881 0.00530 0.0
C508 C 0.84183 0.80357 0.02887 0.0
C509 C 0.85974 0.82317 0.02871 0.0
C510 C 0.87628 0.80884 0.01549 0.0
C511 C 0.85837 0.78924 0.01565 0.0
C512 C 0.89260 0.84502 0.00482 0.0
C513 C 0.91052 0.86461 0.00461 0.0
C514 C 0.82332 0.76921 0.00545 0.0
C515 C 0.80543 0.74960 0.00558 0.0
H516 H 0.87069 0.82817 0.94782 0.0
H517 H 0.83864 0.79320 0.94699 0.0
H518 H 0.82949 0.79965 0.04499 0.0
H519 H 0.86126 0.83487 0.04548 0.0
H520 H 0.89010 0.81151 0.02250 0.0
H521 H 0.85840 0.77624 0.02313 0.0
