data_{}
_symmetry_space_group_name_H-M    P1
_symmetry_Int_Tables_number       1
_symmetry_cell_setting            triclinic
loop_
_symmetry_equiv_pos_as_xyz
'x, y, z'
_cell_length_a     63.187
_cell_length_b     61.426
_cell_length_c     32.653
_cell_angle_alpha  89.996
_cell_angle_beta   90.144
_cell_angle_gamma  123.402
loop_
_atom_site_label
_atom_site_type_symbol
_atom_site_fract_x
_atom_site_fract_y
_atom_site_fract_z
_atom_type_partial_charge
H0 H 0.07785 0.08222 0.98766 0.0
C1 C 0.97321 0.00444 0.97912 0.0
H2 H 0.07200 0.07929 0.03473 0.0
H3 H 0.02370 0.02355 0.99169 0.0
H4 H 0.05471 0.10552 0.00607 0.0
H5 H 0.97247 0.04851 0.98199 0.0
H6 H 0.01423 0.10874 0.02129 0.0
H7 H 0.01990 0.11364 0.97427 0.0
C8 C 0.06655 0.07024 0.00863 0.0
C9 C 0.03958 0.06288 0.99990 0.0
C10 C 0.01979 0.03762 0.99229 0.0
C11 C 0.99542 0.03202 0.98414 0.0
C12 C 0.99185 0.05288 0.98379 0.0
C13 C 0.01139 0.07765 0.99204 0.0
C14 C 0.03586 0.08321 0.99990 0.0
C15 C 0.00889 0.10077 0.99436 0.0
H16 H 0.96247 0.00355 0.95704 0.0
H17 H 0.97923 0.99343 0.97183 0.0
C18 C 0.88529 0.38632 0.73077 0.0
C19 C 0.86708 0.36196 0.75640 0.0
C20 C 0.87728 0.35497 0.79352 0.0
C21 C 0.85931 0.33061 0.81938 0.0
C22 C 0.86973 0.32375 0.85641 0.0
C23 C 0.89806 0.34122 0.86740 0.0
C24 C 0.91598 0.36559 0.84164 0.0
C25 C 0.90559 0.37245 0.80467 0.0
C26 C 0.88780 0.31288 0.92927 0.0
C27 C 0.90232 0.31246 0.96664 0.0
C28 C 0.91471 0.29685 0.96507 0.0
C29 C 0.93325 0.30059 0.99990 0.0
C30 C 0.93695 0.31731 0.03708 0.0
C31 C 0.92258 0.33091 0.04027 0.0
C32 C 0.90528 0.32851 0.00495 0.0
C33 C 0.89256 0.34386 0.00653 0.0
C34 C 0.91024 0.27932 0.92786 0.0
C35 C 0.95571 0.32112 0.07095 0.0
C36 C 0.94841 0.28795 0.99540 0.0
C37 C 0.99209 0.29978 0.98533 0.0
C38 C 0.98070 0.27057 0.99217 0.0
C39 C 0.99821 0.26047 0.99445 0.0
C40 C 0.02707 0.27961 0.98989 0.0
C41 C 0.03843 0.30882 0.98271 0.0
C42 C 0.02092 0.31891 0.98043 0.0
C43 C 0.04452 0.26946 0.99259 0.0
C44 C 0.03301 0.24025 0.99990 0.0
C45 C 0.92656 0.34814 0.07749 0.0
C46 C 0.90917 0.34548 0.14573 0.0
C47 C 0.92899 0.37503 0.14858 0.0
C48 C 0.92679 0.39115 0.18234 0.0
C49 C 0.90473 0.37768 0.21307 0.0
C50 C 0.88496 0.34811 0.21023 0.0
C51 C 0.88718 0.33199 0.17653 0.0
C52 C 0.90228 0.39373 0.24663 0.0
C53 C 0.88003 0.38009 0.27695 0.0
O54 O 0.90837 0.33484 0.90381 0.0
O55 O 0.91057 0.32990 0.11152 0.0
O56 O 0.97503 0.30977 0.98445 0.0
H57 H 0.90623 0.39908 0.73938 0.0
H58 H 0.84613 0.34914 0.74789 0.0
H59 H 0.83835 0.31768 0.81114 0.0
H60 H 0.85648 0.30576 0.87565 0.0
H61 H 0.93694 0.37855 0.84996 0.0
H62 H 0.91885 0.39046 0.78553 0.0
H63 H 0.87819 0.29362 0.91181 0.0
H64 H 0.87332 0.31740 0.93917 0.0
H65 H 0.90087 0.35831 0.03306 0.0
H66 H 0.87126 0.32981 0.01107 0.0
H67 H 0.89625 0.35488 0.97652 0.0
H68 H 0.90349 0.28562 0.90067 0.0
H69 H 0.89510 0.25821 0.93590 0.0
H70 H 0.92855 0.28091 0.91959 0.0
H71 H 0.95685 0.33512 0.09514 0.0
H72 H 0.97521 0.32956 0.05684 0.0
H73 H 0.94902 0.30153 0.08569 0.0
H74 H 0.94841 0.27896 0.02595 0.0
H75 H 0.94008 0.27244 0.97034 0.0
H76 H 0.95934 0.25644 0.99572 0.0
H77 H 0.98983 0.23885 0.99990 0.0
H78 H 0.05980 0.32297 0.97918 0.0
H79 H 0.02929 0.34055 0.97529 0.0
H80 H 0.06590 0.28354 0.98921 0.0
H81 H 0.01163 0.22622 0.00333 0.0
H82 H 0.94734 0.36039 0.08708 0.0
H83 H 0.91975 0.36140 0.06956 0.0
H84 H 0.94516 0.38497 0.12556 0.0
H85 H 0.94141 0.41306 0.18450 0.0
H86 H 0.86864 0.33820 0.23302 0.0
H87 H 0.87248 0.31014 0.17420 0.0
H88 H 0.91686 0.41563 0.24899 0.0
H89 H 0.86549 0.35818 0.27447 0.0
C90 C 0.46220 0.14830 0.27261 0.0
C91 C 0.45461 0.12401 0.24687 0.0
C92 C 0.43689 0.11683 0.20971 0.0
C93 C 0.42905 0.09254 0.18372 0.0
C94 C 0.41125 0.08548 0.14666 0.0
C95 C 0.40131 0.10269 0.13574 0.0
C96 C 0.40921 0.12699 0.16163 0.0
C97 C 0.42698 0.13404 0.19864 0.0
C98 C 0.38147 0.07428 0.07374 0.0
C99 C 0.36640 0.07366 0.03636 0.0
C100 C 0.33729 0.05776 0.03784 0.0
C101 C 0.32260 0.06127 0.00372 0.0
C102 C 0.33669 0.07806 0.96593 0.0
C103 C 0.36566 0.09197 0.96281 0.0
C104 C 0.38053 0.08980 0.99813 0.0
C105 C 0.40968 0.10543 0.99664 0.0
C106 C 0.32313 0.04016 0.07496 0.0
C107 C 0.32185 0.08164 0.93207 0.0
C108 C 0.29386 0.04832 0.00746 0.0
C109 C 0.26246 0.05963 0.01757 0.0
C110 C 0.24282 0.03036 0.01059 0.0
C111 C 0.21443 0.01994 0.00825 0.0
C112 C 0.20574 0.03882 0.01290 0.0
C113 C 0.22540 0.06808 0.02023 0.0
C114 C 0.25379 0.07849 0.02256 0.0
C115 C 0.17735 0.02835 0.01013 0.0
C116 C 0.15783 0.99990 0.00262 0.0
C117 C 0.38000 0.10927 0.92568 0.0
C118 C 0.39469 0.10684 0.85743 0.0
C119 C 0.40620 0.13633 0.85473 0.0
C120 C 0.42559 0.15261 0.82105 0.0
C121 C 0.43347 0.13934 0.79026 0.0
C122 C 0.42189 0.10984 0.79295 0.0
C123 C 0.40248 0.09356 0.82657 0.0
C124 C 0.45303 0.15555 0.75679 0.0
C125 C 0.46092 0.14212 0.72640 0.0
O126 O 0.38414 0.09611 0.09930 0.0
O127 O 0.37668 0.09112 0.89156 0.0
O128 O 0.29028 0.06993 0.01851 0.0
H129 H 0.45470 0.16086 0.26406 0.0
H130 H 0.46206 0.11139 0.25532 0.0
H131 H 0.43640 0.07981 0.19191 0.0
H132 H 0.40545 0.06755 0.12733 0.0
H133 H 0.40190 0.13975 0.15336 0.0
H134 H 0.43280 0.15200 0.21787 0.0
H135 H 0.37064 0.05502 0.09109 0.0
H136 H 0.40088 0.07904 0.06386 0.0
H137 H 0.41670 0.11988 0.97017 0.0
H138 H 0.41618 0.09158 0.99203 0.0
H139 H 0.41770 0.11648 0.02670 0.0
H140 H 0.33664 0.04660 0.10219 0.0
H141 H 0.31589 0.01910 0.06682 0.0
H142 H 0.30637 0.04151 0.08324 0.0
H143 H 0.33562 0.09573 0.90796 0.0
H144 H 0.31119 0.08987 0.94622 0.0
H145 H 0.30772 0.06200 0.91723 0.0
H146 H 0.28430 0.03927 0.97685 0.0
H147 H 0.28574 0.03281 0.03244 0.0
H148 H 0.24930 0.01643 0.00697 0.0
H149 H 0.19984 0.99827 0.00298 0.0
H150 H 0.21894 0.08203 0.02382 0.0
H151 H 0.26840 0.10018 0.02781 0.0
H152 H 0.17080 0.04223 0.01359 0.0
H153 H 0.16444 0.98525 0.99990 0.0
H154 H 0.37211 0.12132 0.91615 0.0
H155 H 0.40098 0.12272 0.93369 0.0
H156 H 0.40048 0.14611 0.87780 0.0
H157 H 0.43419 0.17447 0.81900 0.0
H158 H 0.42777 0.10007 0.77012 0.0
H159 H 0.39401 0.07175 0.82879 0.0
H160 H 0.46167 0.17741 0.75454 0.0
H161 H 0.45224 0.12026 0.72878 0.0
C162 C 0.66294 0.57287 0.72970 0.0
C163 C 0.68620 0.57951 0.75552 0.0
C164 C 0.69399 0.59788 0.79263 0.0
C165 C 0.71727 0.60478 0.81869 0.0
C166 C 0.72494 0.62324 0.85570 0.0
C167 C 0.70936 0.63479 0.86649 0.0
C168 C 0.68606 0.62783 0.84053 0.0
C169 C 0.67839 0.60939 0.80357 0.0
C170 C 0.73721 0.65417 0.92853 0.0
C171 C 0.73868 0.67012 0.96584 0.0
C172 C 0.75532 0.70006 0.96429 0.0
C173 C 0.75288 0.71585 0.99832 0.0
C174 C 0.73628 0.70190 0.03610 0.0
C175 C 0.72152 0.67199 0.03929 0.0
C176 C 0.72269 0.65609 0.00406 0.0
C177 C 0.70629 0.62608 0.00562 0.0
C178 C 0.77268 0.71406 0.92718 0.0
C179 C 0.73378 0.71784 0.06987 0.0
C180 C 0.76673 0.74557 0.99450 0.0
C181 C 0.75794 0.77954 0.98418 0.0
C182 C 0.78659 0.79866 0.99121 0.0
C183 C 0.79804 0.82816 0.99346 0.0
C184 C 0.78081 0.83847 0.98868 0.0
C185 C 0.75216 0.81933 0.98130 0.0
C186 C 0.74072 0.78983 0.97906 0.0
C187 C 0.79230 0.86797 0.99135 0.0
C188 C 0.82095 0.88696 0.99891 0.0
C189 C 0.70443 0.65779 0.07641 0.0
C190 C 0.70585 0.64207 0.14474 0.0
C191 C 0.67747 0.63159 0.14736 0.0
C192 C 0.66104 0.61198 0.18106 0.0
C193 C 0.67304 0.60285 0.21195 0.0
C194 C 0.70145 0.61341 0.20934 0.0
C195 C 0.71787 0.63304 0.17571 0.0
C196 C 0.65667 0.58306 0.24545 0.0
C197 C 0.66883 0.57390 0.27593 0.0
O198 O 0.71654 0.65262 0.90288 0.0
O199 O 0.72168 0.66025 0.11060 0.0
O200 O 0.74663 0.75063 0.98333 0.0
H201 H 0.65157 0.58156 0.73815 0.0
H202 H 0.69762 0.57087 0.74717 0.0
H203 H 0.72881 0.59624 0.81060 0.0
H204 H 0.74213 0.62835 0.87509 0.0
H205 H 0.67449 0.63633 0.84870 0.0
H206 H 0.66118 0.60427 0.78429 0.0
H207 H 0.75595 0.66453 0.91121 0.0
H208 H 0.73160 0.63387 0.93848 0.0
H209 H 0.69231 0.61948 0.03206 0.0
H210 H 0.71893 0.61838 0.01033 0.0
H211 H 0.69544 0.61822 0.97555 0.0
H212 H 0.76584 0.70010 0.89999 0.0
H213 H 0.79290 0.72050 0.93539 0.0
H214 H 0.77240 0.73190 0.91881 0.0
H215 H 0.71974 0.70407 0.09398 0.0
H216 H 0.72667 0.72962 0.05563 0.0
H217 H 0.75307 0.73168 0.08473 0.0
H218 H 0.77579 0.75519 0.02510 0.0
H219 H 0.78178 0.75328 0.96956 0.0
H220 H 0.79930 0.79096 0.99492 0.0
H221 H 0.81925 0.84236 0.99875 0.0
H222 H 0.73942 0.82699 0.97761 0.0
H223 H 0.71949 0.77560 0.97378 0.0
H224 H 0.77964 0.87573 0.98780 0.0
H225 H 0.83356 0.87914 0.00243 0.0
H226 H 0.69356 0.66686 0.08585 0.0
H227 H 0.69056 0.63633 0.06845 0.0
H228 H 0.66861 0.63822 0.12422 0.0
H229 H 0.63999 0.60414 0.18305 0.0
H230 H 0.71028 0.60661 0.23225 0.0
H231 H 0.73887 0.64075 0.17355 0.0
H232 H 0.63563 0.57517 0.24764 0.0
H233 H 0.68989 0.58183 0.27362 0.0
Mn234 Mn 0.70960 0.40567 0.50176 0.0
C235 C 0.71877 0.37051 0.44402 0.0
Mn236 Mn 0.64115 0.37088 0.50148 0.0
Mn237 Mn 0.67137 0.33510 0.50163 0.0
C238 C 0.67723 0.41832 0.44382 0.0
C239 C 0.62607 0.32279 0.44364 0.0
C240 C 0.71880 0.37054 0.55961 0.0
C241 C 0.67726 0.41835 0.55941 0.0
C242 C 0.62610 0.32282 0.55923 0.0
O243 O 0.72448 0.39241 0.45525 0.0
O244 O 0.70029 0.34901 0.45521 0.0
O245 O 0.65555 0.40095 0.45496 0.0
O246 O 0.69761 0.42164 0.45517 0.0
O247 O 0.64205 0.31826 0.45494 0.0
O248 O 0.62417 0.34098 0.45489 0.0
O249 O 0.72450 0.39244 0.54840 0.0
O250 O 0.70032 0.34903 0.54827 0.0
O251 O 0.65558 0.40097 0.54810 0.0
O252 O 0.69764 0.42166 0.54823 0.0
O253 O 0.64207 0.31828 0.54808 0.0
O254 O 0.62420 0.34101 0.54795 0.0
O255 O 0.67404 0.37055 0.50162 0.0
H256 H 0.86186 0.40722 0.71346 0.0
H257 H 0.74424 0.38640 0.61526 0.0
H258 H 0.77627 0.38583 0.57116 0.0
H259 H 0.78323 0.39326 0.64740 0.0
H260 H 0.81646 0.39286 0.60373 0.0
H261 H 0.82287 0.40024 0.68006 0.0
H262 H 0.85603 0.39998 0.63803 0.0
H263 H 0.84591 0.37273 0.72131 0.0
H264 H 0.72829 0.35191 0.62311 0.0
H265 H 0.76031 0.35135 0.57901 0.0
H266 H 0.76727 0.35877 0.65525 0.0
H267 H 0.80050 0.35838 0.61158 0.0
H268 H 0.80692 0.36575 0.68791 0.0
H269 H 0.84007 0.36549 0.64588 0.0
C270 C 0.85806 0.38891 0.70034 0.0
C271 C 0.73965 0.36795 0.60150 0.0
C272 C 0.76456 0.36974 0.59253 0.0
C273 C 0.77898 0.37487 0.63390 0.0
C274 C 0.80465 0.37675 0.62501 0.0
C275 C 0.81883 0.38189 0.66673 0.0
C276 C 0.84411 0.38384 0.65919 0.0
H277 H 0.50956 0.16943 0.29996 0.0
H278 H 0.61541 0.29360 0.39646 0.0
H279 H 0.57979 0.29344 0.36246 0.0
H280 H 0.58028 0.25264 0.36443 0.0
H281 H 0.54353 0.25147 0.32938 0.0
H282 H 0.54457 0.21099 0.33186 0.0
H283 H 0.50804 0.20910 0.29705 0.0
H284 H 0.49261 0.16032 0.34751 0.0
H285 H 0.59845 0.28449 0.44400 0.0
H286 H 0.56283 0.28433 0.41001 0.0
H287 H 0.56333 0.24353 0.41197 0.0
H288 H 0.52657 0.24236 0.37693 0.0
H289 H 0.52761 0.20188 0.37940 0.0
H290 H 0.49108 0.19999 0.34460 0.0
C291 C 0.49536 0.17021 0.31807 0.0
C292 C 0.60191 0.29521 0.41521 0.0
C293 C 0.57664 0.28306 0.39154 0.0
C294 C 0.56648 0.25390 0.38290 0.0
C295 C 0.54047 0.24120 0.35853 0.0
C296 C 0.53058 0.21204 0.35016 0.0
C297 C 0.50507 0.19895 0.32630 0.0
H298 H 0.48263 0.18735 0.70282 0.0
H299 H 0.58828 0.31161 0.60721 0.0
H300 H 0.59826 0.28130 0.63945 0.0
H301 H 0.55348 0.27044 0.63894 0.0
H302 H 0.56270 0.23889 0.67221 0.0
H303 H 0.51811 0.22858 0.67120 0.0
H304 H 0.52646 0.19703 0.70426 0.0
H305 H 0.47690 0.17079 0.65477 0.0
H306 H 0.58255 0.29504 0.55916 0.0
H307 H 0.59254 0.26474 0.59140 0.0
H308 H 0.54776 0.25388 0.59089 0.0
H309 H 0.55697 0.22233 0.62416 0.0
H310 H 0.51239 0.21202 0.62315 0.0
H311 H 0.52074 0.18046 0.65622 0.0
C312 C 0.48724 0.17568 0.68399 0.0
C313 C 0.59359 0.30077 0.58774 0.0
C314 C 0.58751 0.27594 0.61059 0.0
C315 C 0.55851 0.25925 0.61975 0.0
C316 C 0.55203 0.23363 0.64327 0.0
C317 C 0.52295 0.21717 0.65218 0.0
C318 C 0.51591 0.19189 0.67524 0.0
H319 H 0.67752 0.56233 0.34192 0.0
H320 H 0.69631 0.46304 0.43881 0.0
H321 H 0.65243 0.44986 0.41953 0.0
H322 H 0.68986 0.49572 0.40674 0.0
H323 H 0.64547 0.48323 0.38652 0.0
H324 H 0.68329 0.52894 0.37412 0.0
H325 H 0.63984 0.51735 0.35380 0.0
H326 H 0.68153 0.55272 0.29216 0.0
H327 H 0.70032 0.45343 0.38905 0.0
H328 H 0.65643 0.44025 0.36977 0.0
H329 H 0.69386 0.48610 0.35697 0.0
H330 H 0.64947 0.47362 0.33676 0.0
H331 H 0.68729 0.51932 0.32436 0.0
H332 H 0.64384 0.50774 0.30404 0.0
C333 C 0.66763 0.54940 0.31566 0.0
C334 C 0.68655 0.44945 0.41319 0.0
C335 C 0.66628 0.45357 0.39566 0.0
C336 C 0.68003 0.48240 0.38084 0.0
C337 C 0.65933 0.48686 0.36274 0.0
C338 C 0.67342 0.51579 0.34806 0.0
C339 C 0.65370 0.52087 0.33011 0.0
H340 H 0.64226 0.53845 0.65922 0.0
H341 H 0.66080 0.43899 0.56249 0.0
H342 H 0.69887 0.48137 0.58623 0.0
H343 H 0.65490 0.47205 0.59453 0.0
H344 H 0.69314 0.51556 0.61924 0.0
H345 H 0.64892 0.50566 0.62712 0.0
H346 H 0.68613 0.54875 0.65183 0.0
H347 H 0.63988 0.52450 0.70863 0.0
H348 H 0.65841 0.42505 0.61191 0.0
H349 H 0.69649 0.46742 0.63565 0.0
H350 H 0.65252 0.45810 0.64395 0.0
H351 H 0.69076 0.50162 0.66866 0.0
H352 H 0.64654 0.49172 0.67654 0.0
H353 H 0.68375 0.53481 0.70125 0.0
C354 C 0.65291 0.53944 0.68660 0.0
C355 C 0.67156 0.43931 0.58923 0.0
C356 C 0.68576 0.46680 0.60862 0.0
C357 C 0.66563 0.47266 0.62155 0.0
C358 C 0.68004 0.50092 0.64156 0.0
C359 C 0.65961 0.50645 0.65431 0.0
C360 C 0.67307 0.53402 0.67405 0.0
H361 H 0.87326 0.39944 0.35102 0.0
H362 H 0.75569 0.37853 0.44844 0.0
H363 H 0.76519 0.39333 0.37553 0.0
H364 H 0.79453 0.38552 0.41588 0.0
H365 H 0.80505 0.40060 0.34160 0.0
H366 H 0.83402 0.39262 0.38276 0.0
H367 H 0.84500 0.40747 0.30965 0.0
H368 H 0.85563 0.36610 0.33428 0.0
H369 H 0.73807 0.34519 0.43170 0.0
H370 H 0.74756 0.35999 0.35878 0.0
H371 H 0.77691 0.35217 0.39914 0.0
H372 H 0.78742 0.36726 0.32485 0.0
H373 H 0.81639 0.35928 0.36602 0.0
H374 H 0.82738 0.37413 0.29290 0.0
C375 C 0.86210 0.38615 0.32575 0.0
C376 C 0.74375 0.36510 0.42383 0.0
C377 C 0.75918 0.37336 0.38371 0.0
C378 C 0.78292 0.37215 0.39097 0.0
C379 C 0.79894 0.38061 0.34985 0.0
C380 C 0.82261 0.37929 0.35769 0.0
C381 C 0.83878 0.38747 0.31798 0.0
C382 C 0.01104 0.12779 0.00471 0.0
C383 C 0.01066 0.15189 0.99327 0.0
C384 C 0.03158 0.17904 0.00931 0.0
C385 C 0.03114 0.20313 0.99800 0.0
H386 H 0.99487 0.14964 0.97293 0.0
H387 H 0.04739 0.18131 0.02959 0.0
H388 H 0.02765 0.13039 0.02307 0.0
H389 H 0.01434 0.19987 0.97937 0.0
C390 C 0.08603 0.04632 0.00495 0.0
C391 C 0.08934 0.02386 0.99499 0.0
C392 C 0.11413 0.02612 0.00659 0.0
C393 C 0.11747 0.00370 0.99649 0.0
H394 H 0.07345 0.00554 0.97902 0.0
H395 H 0.13001 0.04441 0.02263 0.0
H396 H 0.10139 0.06390 0.02301 0.0
H397 H 0.10168 0.98632 0.97864 0.0
C398 C 0.93756 0.97481 0.99832 0.0
C399 C 0.91030 0.96706 0.00690 0.0
C400 C 0.88764 0.93971 0.99496 0.0
C401 C 0.86038 0.93201 0.00340 0.0
H402 H 0.90689 0.98158 0.02208 0.0
H403 H 0.89105 0.92518 0.97985 0.0
H404 H 0.94088 0.95970 0.98532 0.0
H405 H 0.85773 0.94752 0.01668 0.0
