data_{}
_symmetry_space_group_name_H-M    P1
_symmetry_Int_Tables_number       1
_symmetry_cell_setting            triclinic
loop_
_symmetry_equiv_pos_as_xyz
'x, y, z'
_cell_length_a     61.865
_cell_length_b     60.147
_cell_length_c     32.620
_cell_angle_alpha  89.848
_cell_angle_beta   90.995
_cell_angle_gamma  123.754
loop_
_atom_site_label
_atom_site_type_symbol
_atom_site_fract_x
_atom_site_fract_y
_atom_site_fract_z
_atom_type_partial_charge
H0 H 0.07026 0.07632 0.98960 0.0
C1 C 0.96389 0.99277 0.98086 0.0
H2 H 0.06473 0.07314 0.03673 0.0
H3 H 0.01623 0.01484 0.99336 0.0
H4 H 0.04490 0.09804 0.00837 0.0
H5 H 0.96091 0.03643 0.98416 0.0
H6 H 0.00226 0.09876 0.02385 0.0
H7 H 0.00749 0.10389 0.97679 0.0
C8 C 0.05918 0.06379 0.01054 0.0
C9 C 0.03105 0.05482 0.00150 0.0
C10 C 0.01141 0.02855 0.99412 0.0
C11 C 0.98593 0.02149 0.98603 0.0
C12 C 0.98112 0.04195 0.98590 0.0
C13 C 0.00010 0.06772 0.99429 0.0
C14 C 0.02610 0.07474 0.00158 0.0
C15 C 0.99675 0.09049 0.99684 0.0
H16 H 0.95239 0.99120 0.95880 0.0
H17 H 0.97071 0.98222 0.97342 0.0
C18 C 0.90756 0.32441 0.05290 0.0
C19 C 0.91513 0.31747 0.01896 0.0
C20 C 0.92831 0.30377 0.01756 0.0
C21 C 0.94062 0.29258 0.01682 0.0
C22 C 0.95308 0.27973 0.01752 0.0
C23 C 0.96486 0.27768 0.05194 0.0
C24 C 0.97906 0.26545 0.04873 0.0
C25 C 0.98084 0.25758 0.01160 0.0
C26 C 0.96951 0.25999 0.97931 0.0
C27 C 0.95580 0.27154 0.98289 0.0
C28 C 0.90990 0.32411 0.97934 0.0
C29 C 0.89654 0.33780 0.97521 0.0
C30 C 0.89137 0.34469 0.93743 0.0
C31 C 0.88664 0.35100 0.90623 0.0
C32 C 0.87741 0.35690 0.87001 0.0
C33 C 0.88890 0.35443 0.83486 0.0
C34 C 0.88094 0.36045 0.79461 0.0
C35 C 0.86188 0.36866 0.79805 0.0
C36 C 0.85319 0.37125 0.83594 0.0
C37 C 0.86019 0.36394 0.87078 0.0
C38 C 0.88912 0.34341 0.01191 0.0
C39 C 0.89465 0.33650 0.05205 0.0
C40 C 0.88798 0.34354 0.08673 0.0
C41 C 0.88165 0.34945 0.11733 0.0
C42 C 0.87486 0.35676 0.15596 0.0
C43 C 0.85826 0.36383 0.15633 0.0
C44 C 0.85308 0.37252 0.19176 0.0
C45 C 0.86258 0.36905 0.22894 0.0
C46 C 0.87901 0.36040 0.22682 0.0
C47 C 0.88416 0.35293 0.19314 0.0
H48 H 0.91162 0.32055 0.07841 0.0
H49 H 0.96366 0.28413 0.07698 0.0
H50 H 0.98672 0.26313 0.07164 0.0
H51 H 0.97078 0.25389 0.95390 0.0
H52 H 0.94825 0.27350 0.95944 0.0
H53 H 0.91508 0.31959 0.95589 0.0
H54 H 0.90064 0.34936 0.83635 0.0
H55 H 0.88724 0.35924 0.76959 0.0
H56 H 0.84279 0.37787 0.83729 0.0
H57 H 0.85290 0.36380 0.89551 0.0
H58 H 0.88034 0.35190 0.01085 0.0
H59 H 0.84974 0.36298 0.13200 0.0
H60 H 0.84369 0.38035 0.19099 0.0
H61 H 0.88688 0.35990 0.25104 0.0
H62 H 0.89371 0.34526 0.19352 0.0
C63 C 0.36883 0.10455 0.96764 0.0
C64 C 0.35370 0.09742 0.00136 0.0
C65 C 0.32569 0.08340 0.00232 0.0
C66 C 0.30123 0.07192 0.00269 0.0
C67 C 0.27486 0.05877 0.00158 0.0
C68 C 0.26082 0.05654 0.96707 0.0
C69 C 0.23335 0.04399 0.96988 0.0
C70 C 0.22305 0.03600 0.00677 0.0
C71 C 0.23703 0.03859 0.03917 0.0
C72 C 0.26327 0.05045 0.03597 0.0
C73 C 0.36606 0.10417 0.04119 0.0
C74 C 0.39424 0.11817 0.04576 0.0
C75 C 0.40682 0.12518 0.08374 0.0
C76 C 0.41832 0.13159 0.11514 0.0
C77 C 0.43394 0.13767 0.15156 0.0
C78 C 0.41965 0.13498 0.18660 0.0
C79 C 0.43410 0.14116 0.22705 0.0
C80 C 0.46215 0.14973 0.22391 0.0
C81 C 0.47374 0.15249 0.18613 0.0
C82 C 0.45886 0.14504 0.15105 0.0
C83 C 0.40780 0.12397 0.00924 0.0
C84 C 0.39484 0.11694 0.96888 0.0
C85 C 0.40918 0.12417 0.93443 0.0
C86 C 0.42195 0.13024 0.90403 0.0
C87 C 0.43671 0.13774 0.86563 0.0
C88 C 0.46104 0.14512 0.86552 0.0
C89 C 0.47565 0.15399 0.83035 0.0
C90 C 0.46238 0.15036 0.79305 0.0
C91 C 0.43652 0.14139 0.79486 0.0
C92 C 0.42325 0.13375 0.82831 0.0
H93 H 0.36062 0.10061 0.94201 0.0
H94 H 0.26899 0.06308 0.94222 0.0
H95 H 0.22316 0.04154 0.94687 0.0
H96 H 0.22916 0.03240 0.06440 0.0
H97 H 0.27297 0.05254 0.05950 0.0
H98 H 0.35595 0.09952 0.06448 0.0
H99 H 0.40237 0.12969 0.18492 0.0
H100 H 0.42642 0.13982 0.25201 0.0
H101 H 0.49135 0.15933 0.18500 0.0
H102 H 0.46610 0.14502 0.12634 0.0
H103 H 0.42578 0.13267 0.01057 0.0
H104 H 0.46870 0.14439 0.88985 0.0
H105 H 0.49352 0.16202 0.83139 0.0
H106 H 0.42808 0.14077 0.77060 0.0
H107 H 0.40538 0.12587 0.82767 0.0
C108 C 0.70489 0.64969 0.04650 0.0
C109 C 0.71248 0.66534 0.01250 0.0
C110 C 0.72730 0.69423 0.01106 0.0
C111 C 0.73952 0.71949 0.01024 0.0
C112 C 0.75343 0.74669 0.01089 0.0
C113 C 0.75634 0.76145 0.04499 0.0
C114 C 0.76975 0.78985 0.04166 0.0
C115 C 0.77787 0.80032 0.00469 0.0
C116 C 0.77462 0.78565 0.97269 0.0
C117 C 0.76193 0.75851 0.97639 0.0
C118 C 0.70542 0.65263 0.97287 0.0
C119 C 0.69060 0.62357 0.96879 0.0
C120 C 0.68329 0.61065 0.93099 0.0
C121 C 0.67659 0.59883 0.89977 0.0
C122 C 0.66997 0.58264 0.86369 0.0
C123 C 0.67334 0.59764 0.82824 0.0
C124 C 0.66670 0.58269 0.78807 0.0
C125 C 0.65699 0.55345 0.79189 0.0
C126 C 0.65371 0.54130 0.82999 0.0
C127 C 0.66158 0.55663 0.86480 0.0
C128 C 0.68435 0.60951 0.00558 0.0
C129 C 0.69172 0.62283 0.04573 0.0
C130 C 0.68408 0.60803 0.08042 0.0
C131 C 0.67762 0.59483 0.11106 0.0
C132 C 0.66970 0.57961 0.14971 0.0
C133 C 0.66132 0.55422 0.15041 0.0
C134 C 0.65213 0.53924 0.18578 0.0
C135 C 0.65631 0.55309 0.22274 0.0
C136 C 0.66627 0.57999 0.22034 0.0
C137 C 0.67423 0.59363 0.18670 0.0
H138 H 0.70907 0.65816 0.07198 0.0
H139 H 0.74971 0.75316 0.06989 0.0
H140 H 0.77264 0.80050 0.06439 0.0
H141 H 0.78090 0.79365 0.94741 0.0
H142 H 0.75940 0.74835 0.95312 0.0
H143 H 0.71038 0.66309 0.94938 0.0
H144 H 0.67933 0.61566 0.82950 0.0
H145 H 0.66841 0.59078 0.76289 0.0
H146 H 0.64625 0.52302 0.83149 0.0
H147 H 0.66116 0.54894 0.88977 0.0
H148 H 0.67513 0.59095 0.00456 0.0
H149 H 0.66157 0.54607 0.12638 0.0
H150 H 0.64353 0.52075 0.18508 0.0
H151 H 0.66734 0.58891 0.24433 0.0
H152 H 0.68269 0.61213 0.18699 0.0
Zn153 Zn 0.66498 0.35996 0.50850 0.0
N154 N 0.62933 0.34703 0.53942 0.0
C155 C 0.61615 0.35681 0.52412 0.0
C156 C 0.61847 0.32772 0.56766 0.0
C157 C 0.59075 0.34716 0.53671 0.0
C158 C 0.59354 0.31719 0.58105 0.0
C159 C 0.57914 0.32598 0.56419 0.0
N160 N 0.69030 0.39460 0.54653 0.0
H161 H 0.62818 0.32113 0.57875 0.0
H162 H 0.58181 0.35484 0.52674 0.0
H163 H 0.56144 0.31774 0.57119 0.0
C164 C 0.64519 0.30406 0.48420 0.0
C165 C 0.62855 0.32083 0.43885 0.0
C166 C 0.62955 0.27839 0.46641 0.0
C167 C 0.61251 0.29610 0.42028 0.0
C168 C 0.61205 0.27453 0.43526 0.0
H169 H 0.67966 0.40271 0.43824 0.0
H170 H 0.60452 0.39049 0.49022 0.0
H171 H 0.63064 0.42657 0.44578 0.0
C172 C 0.71441 0.41062 0.53281 0.0
C173 C 0.68244 0.40245 0.57814 0.0
C174 C 0.73200 0.43594 0.55059 0.0
H175 H 0.66530 0.39071 0.58803 0.0
C176 C 0.69863 0.42715 0.59671 0.0
H177 H 0.74941 0.44687 0.54159 0.0
C178 C 0.72304 0.44449 0.58174 0.0
H179 H 0.73377 0.46214 0.59251 0.0
C180 C 0.72142 0.40042 0.49758 0.0
H181 H 0.62838 0.33563 0.42896 0.0
C182 C 0.70661 0.36833 0.44632 0.0
C183 C 0.74732 0.41251 0.48530 0.0
H184 H 0.63086 0.26415 0.47542 0.0
C185 C 0.73159 0.37906 0.43296 0.0
C186 C 0.75213 0.40041 0.45362 0.0
H187 H 0.59995 0.25711 0.42449 0.0
N188 N 0.65115 0.38164 0.47757 0.0
H189 H 0.69245 0.35313 0.43248 0.0
C190 C 0.66312 0.30985 0.51943 0.0
N191 N 0.64438 0.32448 0.47047 0.0
C192 C 0.68932 0.33992 0.57068 0.0
C193 C 0.66988 0.29198 0.53172 0.0
H194 H 0.76107 0.42841 0.49824 0.0
C195 C 0.69695 0.32342 0.58405 0.0
C196 C 0.68823 0.29998 0.56340 0.0
C197 C 0.62957 0.37801 0.49286 0.0
H198 H 0.76948 0.40692 0.44640 0.0
C199 C 0.66447 0.40052 0.44933 0.0
C200 C 0.62037 0.39378 0.48026 0.0
C201 C 0.65665 0.41685 0.43593 0.0
N202 N 0.70185 0.37884 0.47833 0.0
C203 C 0.63528 0.41438 0.45278 0.0
N204 N 0.67286 0.33316 0.53867 0.0
H205 H 0.69590 0.35646 0.58452 0.0
H206 H 0.66220 0.27501 0.51878 0.0
H207 H 0.69458 0.28928 0.57062 0.0
C208 C 0.83984 0.36818 0.75652 0.0
C209 C 0.81675 0.36232 0.72898 0.0
C210 C 0.79363 0.35646 0.70141 0.0
C211 C 0.77058 0.35058 0.67379 0.0
C212 C 0.74754 0.34466 0.64597 0.0
C213 C 0.72454 0.33872 0.61810 0.0
C214 C 0.48110 0.16495 0.25677 0.0
C215 C 0.50323 0.18703 0.28397 0.0
C216 C 0.52539 0.20913 0.31121 0.0
C217 C 0.54747 0.23122 0.33845 0.0
C218 C 0.56950 0.25338 0.36579 0.0
C219 C 0.59145 0.27552 0.39315 0.0
C220 C 0.48497 0.17272 0.75332 0.0
C221 C 0.50458 0.19744 0.72835 0.0
C222 C 0.52421 0.22219 0.70336 0.0
C223 C 0.54376 0.24692 0.67837 0.0
C224 C 0.56324 0.27171 0.65332 0.0
C225 C 0.58266 0.29649 0.62826 0.0
C226 C 0.65265 0.53418 0.25794 0.0
C227 C 0.65317 0.51348 0.28503 0.0
C228 C 0.65370 0.49276 0.31214 0.0
C229 C 0.65414 0.47203 0.33923 0.0
C230 C 0.65446 0.45121 0.36638 0.0
C231 C 0.65470 0.43036 0.39352 0.0
C232 C 0.65685 0.53213 0.75385 0.0
C233 C 0.66271 0.51453 0.72862 0.0
C234 C 0.66857 0.49692 0.70337 0.0
C235 C 0.67451 0.47938 0.67819 0.0
C236 C 0.68057 0.46189 0.65305 0.0
C237 C 0.68670 0.44445 0.62798 0.0
C238 C 0.84759 0.37267 0.26569 0.0
C239 C 0.82783 0.37271 0.29368 0.0
C240 C 0.80806 0.37275 0.32169 0.0
C241 C 0.78836 0.37284 0.34977 0.0
C242 C 0.76874 0.37298 0.37801 0.0
C243 C 0.74918 0.37317 0.40632 0.0
C244 C 0.98455 0.10428 0.00431 0.0
C245 C 0.98517 0.13021 0.00572 0.0
C246 C 0.98579 0.15616 0.00714 0.0
C247 C 0.98633 0.18204 0.00852 0.0
C248 C 0.98674 0.20787 0.00987 0.0
C249 C 0.98708 0.23365 0.01119 0.0
C250 C 0.07699 0.04930 0.00279 0.0
C251 C 0.09992 0.04595 0.00330 0.0
C252 C 0.12287 0.04260 0.00380 0.0
C253 C 0.14575 0.03917 0.00435 0.0
C254 C 0.16857 0.03562 0.00495 0.0
C255 C 0.19132 0.03199 0.00560 0.0
C256 C 0.93959 0.96738 0.00273 0.0
C257 C 0.91265 0.94085 0.00314 0.0
C258 C 0.88568 0.91428 0.00356 0.0
C259 C 0.85879 0.88771 0.00399 0.0
C260 C 0.83192 0.86104 0.00441 0.0
C261 C 0.80511 0.83436 0.00483 0.0
