data_{}
_symmetry_space_group_name_H-M    P1
_symmetry_Int_Tables_number       1
_symmetry_cell_setting            triclinic
loop_
_symmetry_equiv_pos_as_xyz
'x, y, z'
_cell_length_a     68.074
_cell_length_b     68.041
_cell_length_c     38.072
_cell_angle_alpha  90.055
_cell_angle_beta   90.054
_cell_angle_gamma  85.299
loop_
_atom_site_label
_atom_site_type_symbol
_atom_site_fract_x
_atom_site_fract_y
_atom_site_fract_z
_atom_type_partial_charge
H0 H 0.01980 0.53097 0.02116 0.0
O1 O 0.01037 0.52611 0.03009 0.0
H2 H 0.98064 0.46993 0.97904 0.0
O3 O 0.99006 0.47479 0.97011 0.0
H4 H 0.99426 0.48286 0.03637 0.0
H5 H 0.96596 0.49998 0.01080 0.0
H6 H 0.97774 0.51868 0.00575 0.0
H7 H 0.00618 0.51805 0.96383 0.0
H8 H 0.03448 0.50092 0.98940 0.0
C9 C 0.99295 0.49731 0.03647 0.0
H10 H 0.02270 0.48222 0.99445 0.0
C11 C 0.01375 0.50468 0.02949 0.0
C12 C 0.97895 0.50438 0.00645 0.0
C13 C 0.00748 0.50359 0.96373 0.0
C14 C 0.02149 0.49653 0.99375 0.0
C15 C 0.98669 0.49622 0.97071 0.0
H16 H 0.48139 0.03446 0.02110 0.0
O17 O 0.48183 0.02348 0.03004 0.0
H18 H 0.51917 0.96629 0.97910 0.0
O19 O 0.51873 0.97727 0.97016 0.0
H20 H 0.51334 0.98542 0.03641 0.0
H21 H 0.48675 0.96993 0.01079 0.0
H22 H 0.47508 0.99062 0.00570 0.0
H23 H 0.48722 0.01533 0.96379 0.0
H24 H 0.51382 0.03082 0.98941 0.0
C25 C 0.50009 0.99224 0.03647 0.0
H26 H 0.52548 0.01013 0.99450 0.0
C27 C 0.50207 0.01463 0.02949 0.0
C28 C 0.48817 0.98380 0.00643 0.0
C29 C 0.50047 0.00851 0.96373 0.0
C30 C 0.51240 0.01695 0.99377 0.0
C31 C 0.49850 0.98612 0.97071 0.0
H32 H 0.50936 0.55188 0.53427 0.0
H33 H 0.45795 0.51168 0.55232 0.0
H34 H 0.47629 0.49614 0.55134 0.0
H35 H 0.46911 0.52726 0.50202 0.0
H36 H 0.48676 0.51099 0.49820 0.0
H37 H 0.48206 0.53675 0.55663 0.0
H38 H 0.49992 0.52090 0.55177 0.0
H39 H 0.50964 0.52835 0.47589 0.0
H40 H 0.52219 0.54655 0.48031 0.0
H41 H 0.47384 0.48619 0.47242 0.0
H42 H 0.45933 0.46961 0.47656 0.0
H43 H 0.44581 0.51214 0.47986 0.0
H44 H 0.43375 0.49350 0.47766 0.0
H45 H 0.47519 0.56143 0.51489 0.0
H46 H 0.48500 0.55620 0.47835 0.0
H47 H 0.49111 0.44887 0.46590 0.0
H48 H 0.54252 0.48907 0.44784 0.0
H49 H 0.52419 0.50461 0.44883 0.0
H50 H 0.53136 0.47349 0.49815 0.0
H51 H 0.51372 0.48976 0.50197 0.0
H52 H 0.51841 0.46400 0.44354 0.0
H53 H 0.50055 0.47985 0.44840 0.0
H54 H 0.49083 0.47240 0.52427 0.0
H55 H 0.47829 0.45420 0.51986 0.0
H56 H 0.52664 0.51456 0.52775 0.0
H57 H 0.54114 0.53114 0.52361 0.0
H58 H 0.55466 0.48861 0.52030 0.0
H59 H 0.56673 0.50725 0.52250 0.0
H60 H 0.52528 0.43932 0.48528 0.0
H61 H 0.51547 0.44455 0.52182 0.0
C62 C 0.46701 0.50414 0.53681 0.0
C63 C 0.47831 0.51833 0.51498 0.0
C64 C 0.49060 0.52995 0.53936 0.0
C65 C 0.51640 0.53603 0.49284 0.0
C66 C 0.46785 0.47785 0.48934 0.0
C67 C 0.43983 0.50226 0.49372 0.0
C68 C 0.48760 0.56026 0.50225 0.0
C69 C 0.53346 0.49661 0.46336 0.0
C70 C 0.52217 0.48242 0.48519 0.0
C71 C 0.50987 0.47080 0.46080 0.0
C72 C 0.48407 0.46472 0.50733 0.0
C73 C 0.53263 0.52290 0.51083 0.0
C74 C 0.56064 0.49849 0.50645 0.0
C75 C 0.51287 0.44049 0.49792 0.0
N76 N 0.45556 0.49068 0.51424 0.0
N77 N 0.50171 0.54484 0.51982 0.0
N78 N 0.54491 0.51007 0.48592 0.0
N79 N 0.49876 0.45591 0.48034 0.0
C80 C 0.10041 0.53971 0.26769 0.0
C81 C 0.10598 0.52111 0.28973 0.0
C82 C 0.11979 0.52230 0.32157 0.0
C83 C 0.12555 0.50381 0.34381 0.0
C84 C 0.13942 0.50515 0.37557 0.0
C85 C 0.14751 0.52495 0.38494 0.0
C86 C 0.14170 0.54344 0.36279 0.0
C87 C 0.12785 0.54210 0.33108 0.0
C88 C 0.16264 0.50794 0.43806 0.0
C89 C 0.17447 0.51390 0.47010 0.0
C90 C 0.19711 0.51217 0.46877 0.0
C91 C 0.20871 0.52169 0.49803 0.0
C92 C 0.19789 0.53073 0.53048 0.0
C93 C 0.17533 0.53072 0.53320 0.0
C94 C 0.16361 0.52233 0.50293 0.0
C95 C 0.14093 0.52380 0.50426 0.0
C96 C 0.20798 0.50244 0.43689 0.0
C97 C 0.20960 0.54037 0.55951 0.0
C98 C 0.23111 0.52246 0.49477 0.0
C99 C 0.25599 0.54624 0.48608 0.0
C100 C 0.27097 0.52836 0.49200 0.0
C101 C 0.29313 0.53126 0.49396 0.0
C102 C 0.30027 0.55203 0.48999 0.0
C103 C 0.28528 0.56990 0.48377 0.0
C104 C 0.26312 0.56700 0.48182 0.0
C105 C 0.32243 0.55488 0.49231 0.0
C106 C 0.33731 0.53695 0.49869 0.0
C107 C 0.16432 0.54011 0.56509 0.0
C108 C 0.15270 0.53156 0.62364 0.0
C109 C 0.14412 0.55316 0.62602 0.0
C110 C 0.12912 0.55944 0.65495 0.0
C111 C 0.12270 0.54408 0.68134 0.0
C112 C 0.13133 0.52249 0.67897 0.0
C113 C 0.14635 0.51622 0.65010 0.0
C114 C 0.10757 0.55022 0.71010 0.0
C115 C 0.10113 0.53470 0.73615 0.0
O116 O 0.16091 0.52646 0.41617 0.0
O117 O 0.16662 0.52519 0.59433 0.0
O118 O 0.23427 0.54348 0.48532 0.0
H119 H 0.10651 0.55428 0.27503 0.0
H120 H 0.09991 0.50651 0.28247 0.0
H121 H 0.11957 0.48915 0.33677 0.0
H122 H 0.14369 0.49150 0.39211 0.0
H123 H 0.14766 0.55810 0.36989 0.0
H124 H 0.12357 0.55577 0.31462 0.0
H125 H 0.17085 0.49526 0.42313 0.0
H126 H 0.14745 0.50383 0.44656 0.0
H127 H 0.13563 0.53378 0.52699 0.0
H128 H 0.13559 0.50851 0.50820 0.0
H129 H 0.13481 0.53029 0.47851 0.0
H130 H 0.19747 0.50240 0.41356 0.0
H131 H 0.21333 0.48659 0.44384 0.0
H132 H 0.22118 0.51090 0.42977 0.0
H133 H 0.19900 0.54712 0.58022 0.0
H134 H 0.21813 0.55241 0.54737 0.0
H135 H 0.22040 0.52879 0.57219 0.0
H136 H 0.23847 0.51844 0.52099 0.0
H137 H 0.23725 0.51199 0.47331 0.0
H138 H 0.26564 0.51300 0.49508 0.0
H139 H 0.30425 0.51804 0.49842 0.0
H140 H 0.29058 0.58527 0.48070 0.0
H141 H 0.25198 0.58022 0.47737 0.0
H142 H 0.32781 0.57023 0.48936 0.0
H143 H 0.33188 0.52163 0.50162 0.0
H144 H 0.17072 0.55439 0.57328 0.0
H145 H 0.14804 0.54316 0.55827 0.0
H146 H 0.14878 0.56445 0.60624 0.0
H147 H 0.12271 0.57542 0.65675 0.0
H148 H 0.12654 0.51115 0.69855 0.0
H149 H 0.15266 0.50023 0.64815 0.0
H150 H 0.10113 0.56618 0.71207 0.0
H151 H 0.10761 0.51875 0.73407 0.0
C152 C 0.53795 0.10076 0.26769 0.0
C153 C 0.55655 0.10329 0.28978 0.0
C154 C 0.55535 0.11730 0.32162 0.0
C155 C 0.57383 0.12004 0.34392 0.0
C156 C 0.57249 0.13414 0.37567 0.0
C157 C 0.55269 0.14547 0.38499 0.0
C158 C 0.53422 0.14268 0.36277 0.0
C159 C 0.53555 0.12861 0.33107 0.0
C160 C 0.56970 0.15782 0.43815 0.0
C161 C 0.56373 0.17064 0.47017 0.0
C162 C 0.56546 0.19300 0.46885 0.0
C163 C 0.55594 0.20617 0.49808 0.0
C164 C 0.54691 0.19682 0.53050 0.0
C165 C 0.54691 0.17425 0.53323 0.0
C166 C 0.55531 0.16115 0.50298 0.0
C167 C 0.55384 0.13870 0.50431 0.0
C168 C 0.57518 0.20229 0.43701 0.0
C169 C 0.53726 0.21012 0.55950 0.0
C170 C 0.55516 0.22870 0.49482 0.0
C171 C 0.53139 0.25749 0.48606 0.0
C172 C 0.54926 0.26955 0.49203 0.0
C173 C 0.54635 0.29219 0.49398 0.0
C174 C 0.52558 0.30274 0.48995 0.0
C175 C 0.50773 0.29067 0.48368 0.0
C176 C 0.51064 0.26802 0.48173 0.0
C177 C 0.52273 0.32537 0.49227 0.0
C178 C 0.54065 0.33732 0.49870 0.0
C179 C 0.53754 0.16477 0.56509 0.0
C180 C 0.54608 0.15174 0.62366 0.0
C181 C 0.52449 0.14670 0.62597 0.0
C182 C 0.51822 0.13272 0.65488 0.0
C183 C 0.53358 0.12378 0.68132 0.0
C184 C 0.55516 0.12888 0.67903 0.0
C185 C 0.56141 0.14288 0.65017 0.0
C186 C 0.52745 0.10965 0.71006 0.0
C187 C 0.54296 0.10067 0.73616 0.0
O188 O 0.55118 0.15912 0.41621 0.0
O189 O 0.55245 0.16463 0.59437 0.0
O190 O 0.53415 0.23531 0.48531 0.0
H191 H 0.52339 0.10925 0.27499 0.0
H192 H 0.57114 0.09483 0.28257 0.0
H193 H 0.58849 0.11165 0.33693 0.0
H194 H 0.58613 0.13617 0.39225 0.0
H195 H 0.51955 0.15104 0.36983 0.0
H196 H 0.52190 0.12656 0.31456 0.0
H197 H 0.58236 0.16397 0.42326 0.0
H198 H 0.57380 0.14195 0.44666 0.0
H199 H 0.54387 0.13504 0.52701 0.0
H200 H 0.56913 0.13086 0.50829 0.0
H201 H 0.54736 0.13364 0.47853 0.0
H202 H 0.57522 0.19176 0.41367 0.0
H203 H 0.59102 0.20504 0.44400 0.0
H204 H 0.56672 0.21688 0.42986 0.0
H205 H 0.53052 0.20061 0.58020 0.0
H206 H 0.52523 0.22062 0.54733 0.0
H207 H 0.54884 0.21902 0.57222 0.0
H208 H 0.55918 0.23541 0.52105 0.0
H209 H 0.56562 0.23314 0.47340 0.0
H210 H 0.56461 0.26170 0.49517 0.0
H211 H 0.55956 0.30115 0.49849 0.0
H212 H 0.49237 0.29849 0.48056 0.0
H213 H 0.49743 0.25904 0.47724 0.0
H214 H 0.50739 0.33327 0.48927 0.0
H215 H 0.55597 0.32939 0.50167 0.0
H216 H 0.52326 0.17351 0.57323 0.0
H217 H 0.53449 0.14898 0.55826 0.0
H218 H 0.51321 0.15321 0.60616 0.0
H219 H 0.50225 0.12892 0.65664 0.0
H220 H 0.56649 0.12224 0.69863 0.0
H221 H 0.57740 0.14658 0.64827 0.0
H222 H 0.51149 0.10581 0.71199 0.0
H223 H 0.55890 0.10453 0.73413 0.0
C224 C 0.89993 0.46260 0.73251 0.0
C225 C 0.89741 0.44400 0.71041 0.0
C226 C 0.88341 0.44519 0.67858 0.0
C227 C 0.88067 0.42670 0.65628 0.0
C228 C 0.86658 0.42804 0.62452 0.0
C229 C 0.85525 0.44785 0.61521 0.0
C230 C 0.85803 0.46633 0.63742 0.0
C231 C 0.87210 0.46500 0.66913 0.0
C232 C 0.84291 0.43083 0.56204 0.0
C233 C 0.83010 0.43680 0.53002 0.0
C234 C 0.80775 0.43506 0.53134 0.0
C235 C 0.79458 0.44458 0.50211 0.0
C236 C 0.80393 0.45362 0.46969 0.0
C237 C 0.82649 0.45362 0.46696 0.0
C238 C 0.83958 0.44522 0.49721 0.0
C239 C 0.86202 0.44670 0.49588 0.0
C240 C 0.79847 0.42533 0.56319 0.0
C241 C 0.79063 0.46327 0.44069 0.0
C242 C 0.77206 0.44535 0.50537 0.0
C243 C 0.74328 0.46913 0.51414 0.0
C244 C 0.73124 0.45125 0.50816 0.0
C245 C 0.70860 0.45415 0.50621 0.0
C246 C 0.69806 0.47493 0.51024 0.0
C247 C 0.71012 0.49279 0.51652 0.0
C248 C 0.73275 0.48989 0.51846 0.0
C249 C 0.67543 0.47778 0.50793 0.0
C250 C 0.66349 0.45985 0.50149 0.0
C251 C 0.83596 0.46300 0.43511 0.0
C252 C 0.84898 0.45446 0.37653 0.0
C253 C 0.85402 0.47606 0.37422 0.0
C254 C 0.86799 0.48233 0.34531 0.0
C255 C 0.87693 0.46697 0.31887 0.0
C256 C 0.87183 0.44538 0.32117 0.0
C257 C 0.85784 0.43912 0.35003 0.0
C258 C 0.89105 0.47311 0.29013 0.0
C259 C 0.90003 0.45759 0.26403 0.0
O260 O 0.84161 0.44936 0.58398 0.0
O261 O 0.83610 0.44808 0.40582 0.0
O262 O 0.76545 0.46638 0.51489 0.0
H263 H 0.89145 0.47717 0.72521 0.0
H264 H 0.90587 0.42940 0.71762 0.0
H265 H 0.88906 0.41204 0.66326 0.0
H266 H 0.86455 0.41439 0.60794 0.0
H267 H 0.84967 0.48100 0.63036 0.0
H268 H 0.87414 0.47866 0.68563 0.0
H269 H 0.83677 0.41816 0.57693 0.0
H270 H 0.85877 0.42672 0.55353 0.0
H271 H 0.86568 0.45668 0.47318 0.0
H272 H 0.86986 0.43140 0.49190 0.0
H273 H 0.86708 0.45319 0.52166 0.0
H274 H 0.80899 0.42529 0.58652 0.0
H275 H 0.79572 0.40948 0.55619 0.0
H276 H 0.78388 0.43380 0.57033 0.0
H277 H 0.80013 0.47001 0.41999 0.0
H278 H 0.78014 0.47530 0.45286 0.0
H279 H 0.78173 0.45168 0.42797 0.0
H280 H 0.76536 0.44133 0.47914 0.0
H281 H 0.76763 0.43489 0.52679 0.0
H282 H 0.73908 0.43589 0.50502 0.0
H283 H 0.69965 0.44093 0.50170 0.0
H284 H 0.70230 0.50816 0.51963 0.0
H285 H 0.74173 0.50311 0.52295 0.0
H286 H 0.66754 0.49312 0.51092 0.0
H287 H 0.67143 0.44452 0.49852 0.0
H288 H 0.82722 0.47728 0.42696 0.0
H289 H 0.85174 0.46605 0.44194 0.0
H290 H 0.84751 0.48735 0.39403 0.0
H291 H 0.87178 0.49831 0.34356 0.0
H292 H 0.87848 0.43404 0.30156 0.0
H293 H 0.85415 0.42312 0.35193 0.0
H294 H 0.89488 0.48907 0.28821 0.0
H295 H 0.89617 0.44164 0.26606 0.0
C296 C 0.46103 0.90012 0.73250 0.0
C297 C 0.47962 0.89455 0.71046 0.0
C298 C 0.47842 0.88073 0.67862 0.0
C299 C 0.49691 0.87496 0.65638 0.0
C300 C 0.49556 0.86108 0.62462 0.0
C301 C 0.47576 0.85299 0.61525 0.0
C302 C 0.45729 0.85881 0.63740 0.0
C303 C 0.45863 0.87267 0.66911 0.0
C304 C 0.49277 0.83786 0.56213 0.0
C305 C 0.48680 0.82602 0.53009 0.0
C306 C 0.48853 0.80337 0.53142 0.0
C307 C 0.47901 0.79177 0.50216 0.0
C308 C 0.46998 0.80260 0.46971 0.0
C309 C 0.46999 0.82517 0.46699 0.0
C310 C 0.47838 0.83689 0.49726 0.0
C311 C 0.47691 0.85958 0.49593 0.0
C312 C 0.49825 0.79250 0.56329 0.0
C313 C 0.46034 0.79088 0.44068 0.0
C314 C 0.47824 0.76936 0.50542 0.0
C315 C 0.45446 0.74447 0.51411 0.0
C316 C 0.47233 0.72949 0.50819 0.0
C317 C 0.46943 0.70732 0.50623 0.0
C318 C 0.44866 0.70018 0.51019 0.0
C319 C 0.43080 0.71517 0.51641 0.0
C320 C 0.43371 0.73735 0.51837 0.0
C321 C 0.44581 0.67801 0.50787 0.0
C322 C 0.46372 0.66312 0.50149 0.0
C323 C 0.46061 0.83619 0.43510 0.0
C324 C 0.46916 0.84781 0.37655 0.0
C325 C 0.44757 0.85639 0.37417 0.0
C326 C 0.44130 0.87140 0.34524 0.0
C327 C 0.45666 0.87782 0.31885 0.0
C328 C 0.47823 0.86918 0.32121 0.0
C329 C 0.48449 0.85416 0.35009 0.0
C330 C 0.45052 0.89296 0.29009 0.0
C331 C 0.46604 0.89940 0.26404 0.0
O332 O 0.47425 0.83960 0.58402 0.0
O333 O 0.47552 0.83388 0.40586 0.0
O334 O 0.45722 0.76620 0.51487 0.0
H335 H 0.44646 0.89403 0.72516 0.0
H336 H 0.49421 0.90061 0.71772 0.0
H337 H 0.51156 0.88095 0.66341 0.0
H338 H 0.50921 0.85681 0.60808 0.0
H339 H 0.44263 0.85286 0.63030 0.0
H340 H 0.44497 0.87696 0.68557 0.0
H341 H 0.50543 0.82964 0.57706 0.0
H342 H 0.49688 0.85305 0.55363 0.0
H343 H 0.46694 0.86488 0.47320 0.0
H344 H 0.49221 0.86492 0.49199 0.0
H345 H 0.47043 0.86571 0.52168 0.0
H346 H 0.49830 0.80301 0.58663 0.0
H347 H 0.51409 0.78714 0.55635 0.0
H348 H 0.48979 0.77929 0.57041 0.0
H349 H 0.45360 0.80149 0.41997 0.0
H350 H 0.44831 0.78236 0.45282 0.0
H351 H 0.47192 0.78008 0.42800 0.0
H352 H 0.48225 0.76200 0.47920 0.0
H353 H 0.48870 0.76321 0.52687 0.0
H354 H 0.48769 0.73481 0.50510 0.0
H355 H 0.48264 0.69619 0.50176 0.0
H356 H 0.41544 0.70987 0.51948 0.0
H357 H 0.42050 0.74849 0.52282 0.0
H358 H 0.43046 0.67263 0.51082 0.0
H359 H 0.47904 0.66854 0.49856 0.0
H360 H 0.44634 0.82979 0.42691 0.0
H361 H 0.45757 0.85248 0.44192 0.0
H362 H 0.43628 0.85173 0.39395 0.0
H363 H 0.42533 0.87782 0.34344 0.0
H364 H 0.48957 0.87397 0.30164 0.0
H365 H 0.50048 0.84784 0.35204 0.0
H366 H 0.43457 0.89941 0.28812 0.0
H367 H 0.48198 0.89292 0.26612 0.0
C368 C 0.41867 0.51493 0.49719 0.0
C369 C 0.40453 0.51340 0.47265 0.0
C370 C 0.38546 0.52154 0.47795 0.0
C371 C 0.38027 0.53190 0.50698 0.0
C372 C 0.39392 0.53415 0.53257 0.0
C373 C 0.41325 0.52556 0.52736 0.0
C374 C 0.35954 0.54138 0.51378 0.0
O375 O 0.35454 0.54987 0.54079 0.0
H376 H 0.40769 0.50673 0.45182 0.0
H377 H 0.37598 0.51979 0.46086 0.0
H378 H 0.39057 0.54120 0.55293 0.0
H379 H 0.42270 0.52700 0.54466 0.0
C380 C 0.51460 0.41902 0.50353 0.0
C381 C 0.51202 0.40460 0.52703 0.0
C382 C 0.52037 0.38558 0.52195 0.0
C383 C 0.53197 0.38071 0.49426 0.0
C384 C 0.53531 0.39465 0.46979 0.0
C385 C 0.52651 0.41393 0.47473 0.0
C386 C 0.54172 0.36004 0.48780 0.0
O387 O 0.55136 0.35534 0.46186 0.0
H388 H 0.50446 0.40753 0.54697 0.0
H389 H 0.51789 0.37590 0.53823 0.0
H390 H 0.54323 0.39152 0.45035 0.0
H391 H 0.52869 0.42358 0.45819 0.0
C392 C 0.58272 0.48867 0.50311 0.0
C393 C 0.59268 0.47709 0.52707 0.0
C394 C 0.61218 0.47031 0.52183 0.0
C395 C 0.62230 0.47543 0.49349 0.0
C396 C 0.61313 0.48725 0.46853 0.0
C397 C 0.59318 0.49386 0.47365 0.0
C398 C 0.64387 0.46857 0.48682 0.0
O399 O 0.65277 0.47233 0.46036 0.0
H400 H 0.58629 0.47363 0.54744 0.0
H401 H 0.61845 0.46197 0.53847 0.0
H402 H 0.61989 0.49087 0.44865 0.0
H403 H 0.58676 0.50194 0.45677 0.0
C404 C 0.48585 0.58174 0.50318 0.0
C405 C 0.48829 0.59618 0.52678 0.0
C406 C 0.47996 0.61519 0.52159 0.0
C407 C 0.46853 0.62004 0.49366 0.0
C408 C 0.46533 0.60609 0.46907 0.0
C409 C 0.47411 0.58681 0.47414 0.0
C410 C 0.45881 0.64071 0.48706 0.0
O411 O 0.44932 0.64539 0.46093 0.0
H412 H 0.49573 0.59325 0.54688 0.0
H413 H 0.48235 0.62488 0.53796 0.0
H414 H 0.45753 0.60920 0.44948 0.0
H415 H 0.47203 0.57716 0.45752 0.0
C416 C 0.02425 0.50731 0.93522 0.0
C417 C 0.03624 0.51294 0.90302 0.0
C418 C 0.04825 0.51857 0.87080 0.0
C419 C 0.06020 0.52425 0.83860 0.0
C420 C 0.07210 0.53001 0.80633 0.0
C421 C 0.08395 0.53581 0.77407 0.0
C422 C 0.50712 0.02438 0.93518 0.0
C423 C 0.51273 0.03632 0.90289 0.0
C424 C 0.51834 0.04826 0.87057 0.0
C425 C 0.52401 0.06020 0.83834 0.0
C426 C 0.52976 0.07216 0.80614 0.0
C427 C 0.53557 0.08412 0.77401 0.0
C428 C 0.97626 0.49354 0.06504 0.0
C429 C 0.96441 0.48780 0.09734 0.0
C430 C 0.95254 0.48205 0.12967 0.0
C431 C 0.94064 0.47633 0.16190 0.0
C432 C 0.92865 0.47062 0.19409 0.0
C433 C 0.91661 0.46494 0.22620 0.0
C434 C 0.49344 0.97636 0.06502 0.0
C435 C 0.48782 0.96441 0.09729 0.0
C436 C 0.48220 0.95246 0.12959 0.0
C437 C 0.47653 0.94052 0.16181 0.0
C438 C 0.47076 0.92857 0.19402 0.0
C439 C 0.46494 0.91663 0.22617 0.0
C440 C 0.50726 0.02468 0.06602 0.0
C441 C 0.51303 0.03657 0.09832 0.0
C442 C 0.51879 0.04847 0.13066 0.0
C443 C 0.52449 0.06038 0.16295 0.0
C444 C 0.53012 0.07236 0.19528 0.0
C445 C 0.53568 0.08437 0.22757 0.0
C446 C 0.02457 0.50741 0.06596 0.0
C447 C 0.03656 0.51312 0.09817 0.0
C448 C 0.04857 0.51882 0.13040 0.0
C449 C 0.06052 0.52451 0.16266 0.0
C450 C 0.07240 0.53019 0.19506 0.0
C451 C 0.08423 0.53587 0.22750 0.0
C452 C 0.97591 0.49344 0.93419 0.0
C453 C 0.96400 0.48765 0.90194 0.0
C454 C 0.95209 0.48185 0.86965 0.0
C455 C 0.94017 0.47612 0.83738 0.0
C456 C 0.92823 0.47047 0.80502 0.0
C457 C 0.91629 0.46489 0.77267 0.0
C458 C 0.49329 0.97605 0.93420 0.0
C459 C 0.48751 0.96412 0.90196 0.0
C460 C 0.48174 0.95217 0.86968 0.0
C461 C 0.47602 0.94024 0.83741 0.0
C462 C 0.47039 0.92830 0.80505 0.0
C463 C 0.46482 0.91636 0.77267 0.0
