data_{}
_symmetry_space_group_name_H-M    P1
_symmetry_Int_Tables_number       1
_symmetry_cell_setting            triclinic
loop_
_symmetry_equiv_pos_as_xyz
'x, y, z'
_cell_length_a     85.586
_cell_length_b     85.714
_cell_length_c     50.728
_cell_angle_alpha  90.102
_cell_angle_beta   90.101
_cell_angle_gamma  90.222
loop_
_atom_site_label
_atom_site_type_symbol
_atom_site_fract_x
_atom_site_fract_y
_atom_site_fract_z
_atom_type_partial_charge
Co0 Co 0.00542 0.50983 0.00010 0.0
H1 H 0.04047 0.51483 0.01861 0.0
H2 H 0.05743 0.50864 0.05211 0.0
H3 H 0.02320 0.48272 0.08471 0.0
H4 H 0.00735 0.48939 0.04986 0.0
H5 H 0.03049 0.48500 0.98341 0.0
H6 H 0.04780 0.47988 0.94996 0.0
H7 H 0.03596 0.52100 0.91730 0.0
H8 H 0.01925 0.52506 0.95210 0.0
H9 H 0.97038 0.50482 0.01841 0.0
H10 H 0.95342 0.51100 0.05187 0.0
H11 H 0.98767 0.53692 0.08479 0.0
H12 H 0.00351 0.53025 0.04999 0.0
H13 H 0.98034 0.53466 0.98345 0.0
H14 H 0.96302 0.53978 0.94994 0.0
H15 H 0.97485 0.49867 0.91708 0.0
H16 H 0.99157 0.49460 0.95193 0.0
C17 C 0.03691 0.50833 0.03227 0.0
C18 C 0.04717 0.50472 0.05238 0.0
C19 C 0.04220 0.49520 0.07321 0.0
C20 C 0.02703 0.48943 0.07155 0.0
C21 C 0.01754 0.49351 0.05055 0.0
C22 C 0.03155 0.49233 0.96975 0.0
C23 C 0.04193 0.48912 0.94967 0.0
C24 C 0.04368 0.49971 0.92884 0.0
C25 C 0.03499 0.51335 0.93046 0.0
C26 C 0.02494 0.51571 0.95143 0.0
C27 C 0.97394 0.51132 0.03212 0.0
C28 C 0.96369 0.51492 0.05221 0.0
C29 C 0.96866 0.52444 0.07312 0.0
C30 C 0.98384 0.53022 0.07157 0.0
C31 C 0.99332 0.52613 0.05060 0.0
C32 C 0.97928 0.52733 0.96974 0.0
C33 C 0.96889 0.53054 0.94962 0.0
C34 C 0.96713 0.51995 0.92872 0.0
C35 C 0.97582 0.50631 0.93030 0.0
C36 C 0.98588 0.50395 0.95130 0.0
N37 N 0.02218 0.50305 0.03115 0.0
N38 N 0.02292 0.50530 0.97084 0.0
N39 N 0.98867 0.51660 0.03111 0.0
N40 N 0.98790 0.51436 0.97078 0.0
F41 F 0.99807 0.48783 0.00010 0.0
F42 F 0.01277 0.53182 0.00106 0.0
Co43 Co 0.50539 0.00984 0.00010 0.0
H44 H 0.53026 0.03506 0.98354 0.0
H45 H 0.53539 0.05239 0.95012 0.0
H46 H 0.49421 0.04025 0.91722 0.0
H47 H 0.49013 0.02354 0.95199 0.0
H48 H 0.50039 0.04480 0.01856 0.0
H49 H 0.50659 0.06179 0.05210 0.0
H50 H 0.53254 0.02780 0.08485 0.0
H51 H 0.52585 0.01192 0.04997 0.0
H52 H 0.48051 0.98462 0.98328 0.0
H53 H 0.47538 0.96728 0.94974 0.0
H54 H 0.51656 0.97940 0.91713 0.0
H55 H 0.52064 0.99613 0.95200 0.0
H56 H 0.51039 0.97489 0.01842 0.0
H57 H 0.50419 0.95792 0.05184 0.0
H58 H 0.47825 0.99192 0.08461 0.0
H59 H 0.48493 0.00779 0.04984 0.0
C60 C 0.52292 0.03606 0.96984 0.0
C61 C 0.52613 0.04646 0.94977 0.0
C62 C 0.51553 0.04812 0.92888 0.0
C63 C 0.50187 0.03935 0.93042 0.0
C64 C 0.49950 0.02929 0.95137 0.0
C65 C 0.50690 0.04130 0.03226 0.0
C66 C 0.51051 0.05157 0.05239 0.0
C67 C 0.52005 0.04668 0.07328 0.0
C68 C 0.52582 0.03157 0.07165 0.0
C69 C 0.52173 0.02207 0.05063 0.0
C70 C 0.48785 0.98361 0.96961 0.0
C71 C 0.48463 0.97321 0.94948 0.0
C72 C 0.49523 0.97154 0.92863 0.0
C73 C 0.50890 0.98032 0.93030 0.0
C74 C 0.51126 0.99038 0.95131 0.0
C75 C 0.50388 0.97841 0.03209 0.0
C76 C 0.50027 0.96814 0.05216 0.0
C77 C 0.49074 0.97304 0.07301 0.0
C78 C 0.48496 0.98814 0.07143 0.0
C79 C 0.48905 0.99764 0.05048 0.0
N80 N 0.50992 0.02736 0.97085 0.0
N81 N 0.51218 0.02663 0.03117 0.0
N82 N 0.50085 0.99232 0.97074 0.0
N83 N 0.49860 0.99307 0.03105 0.0
F84 F 0.48336 0.01702 0.00010 0.0
F85 F 0.52742 0.00267 0.00010 0.0
Co86 Co 0.50488 0.51176 0.52847 0.0
Co87 Co 0.50594 0.50793 0.47341 0.0
C88 C 0.53363 0.51972 0.49982 0.0
C89 C 0.49550 0.53764 0.49407 0.0
O90 O 0.48288 0.50359 0.52379 0.0
C91 C 0.51532 0.48205 0.50781 0.0
O92 O 0.48374 0.50060 0.47947 0.0
O93 O 0.49718 0.53315 0.51790 0.0
O94 O 0.49811 0.53012 0.47359 0.0
O95 O 0.52794 0.51610 0.47809 0.0
O96 O 0.52708 0.51910 0.52241 0.0
O97 O 0.51271 0.48957 0.52829 0.0
O98 O 0.51364 0.48654 0.48398 0.0
C99 C 0.47719 0.49997 0.50206 0.0
C100 C 0.16895 0.43615 0.32617 0.0
C101 C 0.17212 0.42143 0.34268 0.0
C102 C 0.18319 0.42238 0.36659 0.0
C103 C 0.18652 0.40775 0.38326 0.0
C104 C 0.19765 0.40881 0.40711 0.0
C105 C 0.20544 0.42448 0.41417 0.0
C106 C 0.20207 0.43911 0.39757 0.0
C107 C 0.19096 0.43805 0.37376 0.0
C108 C 0.21632 0.41102 0.45402 0.0
C109 C 0.22614 0.41574 0.47808 0.0
C110 C 0.24403 0.41438 0.47710 0.0
C111 C 0.25391 0.42191 0.49907 0.0
C112 C 0.24592 0.42906 0.52343 0.0
C113 C 0.22798 0.42905 0.52547 0.0
C114 C 0.21808 0.42241 0.50273 0.0
C115 C 0.20014 0.42357 0.50372 0.0
C116 C 0.25201 0.40668 0.45317 0.0
C117 C 0.25590 0.43669 0.54524 0.0
C118 C 0.27178 0.42252 0.49664 0.0
C119 C 0.29319 0.44134 0.49016 0.0
C120 C 0.30388 0.42720 0.49459 0.0
C121 C 0.32170 0.42949 0.49608 0.0
C122 C 0.32880 0.44593 0.49313 0.0
C123 C 0.31809 0.46007 0.48848 0.0
C124 C 0.30027 0.45777 0.48700 0.0
C125 C 0.34662 0.44819 0.49489 0.0
C126 C 0.35723 0.43401 0.49967 0.0
C127 C 0.21987 0.43648 0.54941 0.0
C128 C 0.21005 0.42971 0.59333 0.0
C129 C 0.20470 0.44680 0.59513 0.0
C130 C 0.19320 0.45176 0.61685 0.0
C131 C 0.18706 0.43961 0.63663 0.0
C132 C 0.19245 0.42253 0.63484 0.0
C133 C 0.20396 0.41758 0.61316 0.0
C134 C 0.17544 0.44446 0.65822 0.0
C135 C 0.16927 0.43218 0.67774 0.0
O136 O 0.21620 0.42568 0.43762 0.0
O137 O 0.22069 0.42467 0.57133 0.0
O138 O 0.27572 0.43916 0.48958 0.0
H139 H 0.17480 0.44768 0.33170 0.0
H140 H 0.16630 0.40988 0.33722 0.0
H141 H 0.18076 0.39615 0.37796 0.0
H142 H 0.20012 0.39801 0.41951 0.0
H143 H 0.20780 0.45071 0.40292 0.0
H144 H 0.18848 0.44886 0.36142 0.0
H145 H 0.22199 0.40100 0.44281 0.0
H146 H 0.20396 0.40777 0.46039 0.0
H147 H 0.19661 0.43147 0.52079 0.0
H148 H 0.19486 0.41147 0.50665 0.0
H149 H 0.19571 0.42871 0.48439 0.0
H150 H 0.24364 0.40664 0.43565 0.0
H151 H 0.25518 0.39414 0.45836 0.0
H152 H 0.26308 0.41338 0.44784 0.0
H153 H 0.24793 0.44203 0.56079 0.0
H154 H 0.26350 0.44621 0.53615 0.0
H155 H 0.26370 0.42753 0.55475 0.0
H156 H 0.27736 0.41934 0.51632 0.0
H157 H 0.27595 0.41424 0.48053 0.0
H158 H 0.29860 0.41504 0.49689 0.0
H159 H 0.32965 0.41904 0.49942 0.0
H160 H 0.32336 0.47223 0.48620 0.0
H161 H 0.29231 0.46822 0.48367 0.0
H162 H 0.35194 0.46033 0.49270 0.0
H163 H 0.35187 0.42188 0.50184 0.0
H164 H 0.22593 0.44778 0.55557 0.0
H165 H 0.20712 0.43889 0.54428 0.0
H166 H 0.20918 0.45573 0.58031 0.0
H167 H 0.18919 0.46441 0.61822 0.0
H168 H 0.18787 0.41356 0.64951 0.0
H169 H 0.20789 0.40492 0.61168 0.0
H170 H 0.17141 0.45709 0.65971 0.0
H171 H 0.17334 0.41957 0.67617 0.0
C172 C 0.57925 0.17369 0.32659 0.0
C173 C 0.59399 0.17697 0.34319 0.0
C174 C 0.59304 0.18802 0.36709 0.0
C175 C 0.60769 0.19145 0.38385 0.0
C176 C 0.60663 0.20256 0.40769 0.0
C177 C 0.59093 0.21021 0.41466 0.0
C178 C 0.57629 0.20674 0.39797 0.0
C179 C 0.57735 0.19565 0.37417 0.0
C180 C 0.60442 0.22118 0.45460 0.0
C181 C 0.59969 0.23095 0.47863 0.0
C182 C 0.60106 0.24882 0.47765 0.0
C183 C 0.59352 0.25863 0.49958 0.0
C184 C 0.58635 0.25060 0.52390 0.0
C185 C 0.58636 0.23269 0.52593 0.0
C186 C 0.59301 0.22285 0.50323 0.0
C187 C 0.59184 0.20493 0.50421 0.0
C188 C 0.60877 0.25685 0.45377 0.0
C189 C 0.57871 0.26051 0.54566 0.0
C190 C 0.59290 0.27647 0.49715 0.0
C191 C 0.57406 0.29770 0.49056 0.0
C192 C 0.58823 0.30849 0.49507 0.0
C193 C 0.58593 0.32627 0.49654 0.0
C194 C 0.56946 0.33322 0.49350 0.0
C195 C 0.55531 0.32243 0.48876 0.0
C196 C 0.55761 0.30465 0.48729 0.0
C197 C 0.56720 0.35100 0.49524 0.0
C198 C 0.58141 0.36171 0.50010 0.0
C199 C 0.57892 0.22453 0.54982 0.0
C200 C 0.58570 0.21478 0.59379 0.0
C201 C 0.56858 0.20931 0.59549 0.0
C202 C 0.56361 0.19779 0.61717 0.0
C203 C 0.57578 0.19174 0.63703 0.0
C204 C 0.59289 0.19726 0.63534 0.0
C205 C 0.59785 0.20879 0.61369 0.0
C206 C 0.57092 0.18011 0.65858 0.0
C207 C 0.58322 0.17404 0.67818 0.0
O208 O 0.58974 0.22095 0.43810 0.0
O209 O 0.59075 0.22544 0.57182 0.0
O210 O 0.57624 0.28028 0.48998 0.0
H211 H 0.56770 0.17944 0.33205 0.0
H212 H 0.60555 0.17125 0.33779 0.0
H213 H 0.61931 0.18579 0.37862 0.0
H214 H 0.61744 0.20511 0.42015 0.0
H215 H 0.56467 0.21238 0.40325 0.0
H216 H 0.56652 0.19309 0.36176 0.0
H217 H 0.61446 0.22692 0.44344 0.0
H218 H 0.60767 0.20886 0.46098 0.0
H219 H 0.58394 0.20135 0.52124 0.0
H220 H 0.60397 0.19975 0.50722 0.0
H221 H 0.58670 0.20047 0.48486 0.0
H222 H 0.60880 0.24849 0.43625 0.0
H223 H 0.62133 0.26012 0.45904 0.0
H224 H 0.60206 0.26786 0.44840 0.0
H225 H 0.57337 0.25251 0.56118 0.0
H226 H 0.56918 0.26802 0.53651 0.0
H227 H 0.58789 0.26837 0.55522 0.0
H228 H 0.59609 0.28207 0.51684 0.0
H229 H 0.60120 0.28070 0.48108 0.0
H230 H 0.60040 0.30331 0.49744 0.0
H231 H 0.59640 0.33428 0.49995 0.0
H232 H 0.54313 0.32759 0.48641 0.0
H233 H 0.54714 0.29662 0.48390 0.0
H234 H 0.55504 0.35622 0.49298 0.0
H235 H 0.59355 0.35645 0.50235 0.0
H236 H 0.56761 0.23049 0.55592 0.0
H237 H 0.57651 0.21178 0.54468 0.0
H238 H 0.55964 0.21370 0.58061 0.0
H239 H 0.55095 0.19369 0.61847 0.0
H240 H 0.60188 0.19276 0.65006 0.0
H241 H 0.61052 0.21282 0.61229 0.0
H242 H 0.55827 0.17598 0.66001 0.0
H243 H 0.59586 0.17820 0.67668 0.0
C244 C 0.84188 0.58471 0.67579 0.0
C245 C 0.83860 0.56999 0.65918 0.0
C246 C 0.82753 0.57094 0.63528 0.0
C247 C 0.82409 0.55631 0.61852 0.0
C248 C 0.81297 0.55737 0.59468 0.0
C249 C 0.80531 0.57304 0.58771 0.0
C250 C 0.80879 0.58767 0.60440 0.0
C251 C 0.81989 0.58661 0.62821 0.0
C252 C 0.79432 0.55958 0.54778 0.0
C253 C 0.78454 0.56430 0.52374 0.0
C254 C 0.76664 0.56293 0.52472 0.0
C255 C 0.75682 0.57047 0.50279 0.0
C256 C 0.76486 0.57762 0.47847 0.0
C257 C 0.78280 0.57761 0.47644 0.0
C258 C 0.79265 0.57097 0.49914 0.0
C259 C 0.81060 0.57213 0.49816 0.0
C260 C 0.75860 0.55524 0.54860 0.0
C261 C 0.75494 0.58525 0.45671 0.0
C262 C 0.73895 0.57108 0.50522 0.0
C263 C 0.71769 0.58990 0.51181 0.0
C264 C 0.70689 0.57575 0.50730 0.0
C265 C 0.68908 0.57805 0.50582 0.0
C266 C 0.68211 0.59449 0.50887 0.0
C267 C 0.69293 0.60862 0.51361 0.0
C268 C 0.71074 0.60632 0.51508 0.0
C269 C 0.66431 0.59675 0.50712 0.0
C270 C 0.65359 0.58256 0.50226 0.0
C271 C 0.79097 0.58504 0.45255 0.0
C272 C 0.80074 0.57827 0.40858 0.0
C273 C 0.80622 0.59536 0.40688 0.0
C274 C 0.81776 0.60032 0.38520 0.0
C275 C 0.82381 0.58817 0.36534 0.0
C276 C 0.81828 0.57109 0.36704 0.0
C277 C 0.80673 0.56614 0.38868 0.0
C278 C 0.83546 0.59302 0.34379 0.0
C279 C 0.84154 0.58074 0.32419 0.0
O280 O 0.79456 0.57424 0.56427 0.0
O281 O 0.79006 0.57323 0.43055 0.0
O282 O 0.73514 0.58772 0.51239 0.0
H283 H 0.83612 0.59624 0.67032 0.0
H284 H 0.84433 0.55844 0.66458 0.0
H285 H 0.82976 0.54471 0.62375 0.0
H286 H 0.81042 0.54657 0.58222 0.0
H287 H 0.80314 0.59927 0.59912 0.0
H288 H 0.82246 0.59742 0.64061 0.0
H289 H 0.78858 0.54956 0.55893 0.0
H290 H 0.80666 0.55633 0.54139 0.0
H291 H 0.81419 0.58003 0.48114 0.0
H292 H 0.81579 0.56003 0.49515 0.0
H293 H 0.81507 0.57726 0.51751 0.0
H294 H 0.76697 0.55520 0.56612 0.0
H295 H 0.75533 0.54270 0.54333 0.0
H296 H 0.74758 0.56194 0.55397 0.0
H297 H 0.76295 0.59059 0.44119 0.0
H298 H 0.74742 0.59477 0.46586 0.0
H299 H 0.74707 0.57609 0.44715 0.0
H300 H 0.73334 0.56790 0.48553 0.0
H301 H 0.73472 0.56280 0.52129 0.0
H302 H 0.71208 0.56360 0.50493 0.0
H303 H 0.68105 0.56760 0.50242 0.0
H304 H 0.68776 0.62079 0.51596 0.0
H305 H 0.71878 0.61678 0.51847 0.0
H306 H 0.65908 0.60889 0.50939 0.0
H307 H 0.65885 0.57044 0.50002 0.0
H308 H 0.78500 0.59634 0.44645 0.0
H309 H 0.80374 0.58744 0.45769 0.0
H310 H 0.80182 0.60429 0.42176 0.0
H311 H 0.82187 0.61297 0.38391 0.0
H312 H 0.82279 0.56212 0.35231 0.0
H313 H 0.80270 0.55348 0.39008 0.0
H314 H 0.83960 0.60565 0.34237 0.0
H315 H 0.83738 0.56813 0.32569 0.0
C316 C 0.43032 0.84599 0.67531 0.0
C317 C 0.44506 0.84283 0.65879 0.0
C318 C 0.44412 0.83178 0.63489 0.0
C319 C 0.45877 0.82846 0.61821 0.0
C320 C 0.45771 0.81734 0.59437 0.0
C321 C 0.44201 0.80957 0.58730 0.0
C322 C 0.42737 0.81293 0.60391 0.0
C323 C 0.42843 0.82402 0.62772 0.0
C324 C 0.45549 0.79871 0.54745 0.0
C325 C 0.45077 0.78889 0.52339 0.0
C326 C 0.45214 0.77103 0.52438 0.0
C327 C 0.44459 0.76117 0.50240 0.0
C328 C 0.43743 0.76914 0.47804 0.0
C329 C 0.43744 0.78706 0.47601 0.0
C330 C 0.44409 0.79694 0.49875 0.0
C331 C 0.44292 0.81485 0.49776 0.0
C332 C 0.45985 0.76307 0.54831 0.0
C333 C 0.42979 0.75918 0.45624 0.0
C334 C 0.44398 0.74333 0.50483 0.0
C335 C 0.42514 0.72195 0.51131 0.0
C336 C 0.43930 0.71127 0.50688 0.0
C337 C 0.43700 0.69347 0.50539 0.0
C338 C 0.42054 0.68639 0.50834 0.0
C339 C 0.40639 0.69708 0.51299 0.0
C340 C 0.40869 0.71488 0.51447 0.0
C341 C 0.41828 0.66860 0.50658 0.0
C342 C 0.43249 0.65800 0.50180 0.0
C343 C 0.43000 0.79516 0.45207 0.0
C344 C 0.43678 0.80496 0.40815 0.0
C345 C 0.41966 0.81030 0.40634 0.0
C346 C 0.41469 0.82178 0.38463 0.0
C347 C 0.42686 0.82792 0.36484 0.0
C348 C 0.44397 0.82254 0.36664 0.0
C349 C 0.44893 0.81104 0.38831 0.0
C350 C 0.42200 0.83952 0.34326 0.0
C351 C 0.43430 0.84568 0.32374 0.0
O352 O 0.44081 0.79882 0.56386 0.0
O353 O 0.44182 0.79434 0.43015 0.0
O354 O 0.42732 0.73938 0.51189 0.0
H355 H 0.41878 0.84016 0.66978 0.0
H356 H 0.45663 0.84864 0.66426 0.0
H357 H 0.47038 0.83421 0.62351 0.0
H358 H 0.46852 0.81488 0.58197 0.0
H359 H 0.41574 0.80720 0.59856 0.0
H360 H 0.41760 0.82650 0.64006 0.0
H361 H 0.46553 0.79305 0.55867 0.0
H362 H 0.45875 0.81105 0.54109 0.0
H363 H 0.43502 0.81838 0.48069 0.0
H364 H 0.45504 0.82013 0.49483 0.0
H365 H 0.43778 0.81928 0.51708 0.0
H366 H 0.45988 0.77143 0.56582 0.0
H367 H 0.47240 0.75990 0.54311 0.0
H368 H 0.45314 0.75201 0.55363 0.0
H369 H 0.42445 0.76714 0.44068 0.0
H370 H 0.42025 0.75159 0.46532 0.0
H371 H 0.43897 0.75139 0.44672 0.0
H372 H 0.44717 0.73775 0.48515 0.0
H373 H 0.45227 0.73916 0.52094 0.0
H374 H 0.45147 0.71655 0.50458 0.0
H375 H 0.44748 0.68554 0.50205 0.0
H376 H 0.39421 0.69182 0.51527 0.0
H377 H 0.39822 0.72282 0.51781 0.0
H378 H 0.40612 0.66328 0.50877 0.0
H379 H 0.44463 0.66335 0.49963 0.0
H380 H 0.41869 0.78911 0.44591 0.0
H381 H 0.42759 0.80789 0.45720 0.0
H382 H 0.41072 0.80583 0.42117 0.0
H383 H 0.40203 0.82579 0.38326 0.0
H384 H 0.45295 0.82711 0.35197 0.0
H385 H 0.46160 0.80712 0.38979 0.0
H386 H 0.40935 0.84355 0.34177 0.0
H387 H 0.44693 0.84162 0.32531 0.0
C388 C 0.45720 0.49230 0.50094 0.0
C389 C 0.44214 0.48242 0.50092 0.0
C390 C 0.42706 0.47254 0.50090 0.0
C391 C 0.41198 0.46271 0.50090 0.0
C392 C 0.39684 0.45293 0.50092 0.0
C393 C 0.38168 0.44319 0.50095 0.0
C394 C 0.52308 0.46110 0.50105 0.0
C395 C 0.53284 0.44604 0.50110 0.0
C396 C 0.54260 0.43098 0.50115 0.0
C397 C 0.55239 0.41595 0.50120 0.0
C398 C 0.56226 0.40096 0.50127 0.0
C399 C 0.57215 0.38600 0.50135 0.0
C400 C 0.55366 0.52733 0.50092 0.0
C401 C 0.56880 0.53708 0.50091 0.0
C402 C 0.58395 0.54685 0.50090 0.0
C403 C 0.59906 0.55664 0.50090 0.0
C404 C 0.61415 0.56651 0.50092 0.0
C405 C 0.62920 0.57640 0.50095 0.0
C406 C 0.48773 0.55860 0.50082 0.0
C407 C 0.47797 0.57365 0.50077 0.0
C408 C 0.46821 0.58872 0.50073 0.0
C409 C 0.45842 0.60374 0.50067 0.0
C410 C 0.44855 0.61873 0.50061 0.0
C411 C 0.43865 0.63369 0.50055 0.0
C412 C 0.05567 0.49375 0.90327 0.0
C413 C 0.06659 0.48771 0.88146 0.0
C414 C 0.07752 0.48167 0.85965 0.0
C415 C 0.08870 0.49302 0.84552 0.0
C416 C 0.09962 0.48696 0.82372 0.0
C417 C 0.09936 0.46958 0.81604 0.0
C418 C 0.08818 0.45824 0.83016 0.0
C419 C 0.07726 0.46429 0.85196 0.0
C420 C 0.11029 0.46353 0.79424 0.0
C421 C 0.11004 0.44614 0.78657 0.0
C422 C 0.12098 0.44011 0.76477 0.0
C423 C 0.13215 0.45145 0.75064 0.0
C424 C 0.13239 0.46885 0.75831 0.0
C425 C 0.12146 0.47488 0.78011 0.0
C426 C 0.14308 0.44542 0.72884 0.0
C427 C 0.15402 0.43941 0.70702 0.0
H428 H 0.08889 0.50589 0.85121 0.0
H429 H 0.10790 0.49536 0.81327 0.0
H430 H 0.08799 0.44537 0.82448 0.0
H431 H 0.06897 0.45590 0.86241 0.0
H432 H 0.10177 0.43774 0.79702 0.0
H433 H 0.12080 0.42723 0.75909 0.0
H434 H 0.14067 0.47725 0.74786 0.0
H435 H 0.12164 0.48776 0.78580 0.0
C436 C 0.52150 0.06015 0.90334 0.0
C437 C 0.52756 0.07110 0.88157 0.0
C438 C 0.53361 0.08205 0.85979 0.0
C439 C 0.52301 0.09502 0.84889 0.0
C440 C 0.52907 0.10596 0.82712 0.0
C441 C 0.54573 0.10395 0.81625 0.0
C442 C 0.55633 0.09098 0.82715 0.0
C443 C 0.55027 0.08003 0.84891 0.0
C444 C 0.55179 0.11491 0.79449 0.0
C445 C 0.56845 0.11290 0.78363 0.0
C446 C 0.57451 0.12386 0.76187 0.0
C447 C 0.56390 0.13682 0.75096 0.0
C448 C 0.54724 0.13882 0.76183 0.0
C449 C 0.54118 0.12786 0.78359 0.0
C450 C 0.56995 0.14778 0.72920 0.0
C451 C 0.57598 0.15875 0.70743 0.0
H452 H 0.51068 0.09651 0.85693 0.0
H453 H 0.52123 0.11556 0.81905 0.0
H454 H 0.56866 0.08949 0.81910 0.0
H455 H 0.55811 0.07043 0.85697 0.0
H456 H 0.57631 0.10331 0.79168 0.0
H457 H 0.58685 0.12239 0.75383 0.0
H458 H 0.53938 0.14842 0.75376 0.0
H459 H 0.52885 0.12934 0.79163 0.0
C460 C 0.95645 0.52932 0.09844 0.0
C461 C 0.94538 0.53501 0.12030 0.0
C462 C 0.93430 0.54071 0.14215 0.0
C463 C 0.91858 0.53235 0.14672 0.0
C464 C 0.90751 0.53806 0.16858 0.0
C465 C 0.91216 0.55211 0.18587 0.0
C466 C 0.92788 0.56047 0.18130 0.0
C467 C 0.93895 0.55477 0.15944 0.0
C468 C 0.90109 0.55780 0.20775 0.0
C469 C 0.90575 0.57185 0.22505 0.0
C470 C 0.89467 0.57754 0.24692 0.0
C471 C 0.87895 0.56919 0.25147 0.0
C472 C 0.87429 0.55513 0.23416 0.0
C473 C 0.88537 0.54945 0.21229 0.0
C474 C 0.86787 0.57487 0.27333 0.0
C475 C 0.85678 0.58054 0.29518 0.0
H476 H 0.91513 0.52195 0.13392 0.0
H477 H 0.89587 0.53187 0.17197 0.0
H478 H 0.93133 0.57088 0.19411 0.0
H479 H 0.95058 0.56096 0.15605 0.0
H480 H 0.91738 0.57805 0.22169 0.0
H481 H 0.89812 0.58794 0.25975 0.0
H482 H 0.86265 0.54894 0.23753 0.0
H483 H 0.88193 0.53905 0.19947 0.0
C484 C 0.48585 0.96081 0.09831 0.0
C485 C 0.48014 0.94971 0.12013 0.0
C486 C 0.47443 0.93861 0.14195 0.0
C487 C 0.47574 0.92082 0.13824 0.0
C488 C 0.47003 0.90973 0.16008 0.0
C489 C 0.46301 0.91642 0.18562 0.0
C490 C 0.46170 0.93421 0.18933 0.0
C491 C 0.46741 0.94529 0.16750 0.0
C492 C 0.45731 0.90533 0.20746 0.0
C493 C 0.45030 0.91201 0.23301 0.0
C494 C 0.44461 0.90091 0.25484 0.0
C495 C 0.44590 0.88313 0.25111 0.0
C496 C 0.45291 0.87644 0.22555 0.0
C497 C 0.45861 0.88754 0.20373 0.0
C498 C 0.44020 0.87202 0.27293 0.0
C499 C 0.43450 0.86090 0.29473 0.0
H500 H 0.48093 0.91587 0.11933 0.0
H501 H 0.47099 0.89657 0.15734 0.0
H502 H 0.45651 0.93916 0.20824 0.0
H503 H 0.46644 0.95846 0.17023 0.0
H504 H 0.44933 0.92517 0.23578 0.0
H505 H 0.43942 0.90585 0.27377 0.0
H506 H 0.45388 0.86328 0.22279 0.0
H507 H 0.46379 0.88260 0.18480 0.0
C508 C 0.52493 0.05892 0.09866 0.0
C509 C 0.53063 0.07003 0.12058 0.0
C510 C 0.53633 0.08114 0.14250 0.0
C511 C 0.55389 0.08474 0.14551 0.0
C512 C 0.55958 0.09585 0.16743 0.0
C513 C 0.54772 0.10336 0.18634 0.0
C514 C 0.53016 0.09976 0.18333 0.0
C515 C 0.52447 0.08864 0.16141 0.0
C516 C 0.55341 0.11448 0.20824 0.0
C517 C 0.54155 0.12200 0.22714 0.0
C518 C 0.54726 0.13311 0.24905 0.0
C519 C 0.56482 0.13670 0.25206 0.0
C520 C 0.57668 0.12918 0.23316 0.0
C521 C 0.57097 0.11806 0.21126 0.0
C522 C 0.57052 0.14781 0.27397 0.0
C523 C 0.57625 0.15892 0.29587 0.0
H524 H 0.56267 0.07918 0.13152 0.0
H525 H 0.57257 0.09852 0.16966 0.0
H526 H 0.52138 0.10532 0.19732 0.0
H527 H 0.51148 0.08597 0.15918 0.0
H528 H 0.52856 0.11934 0.22493 0.0
H529 H 0.53848 0.13869 0.26304 0.0
H530 H 0.58968 0.13184 0.23539 0.0
H531 H 0.57975 0.11249 0.19727 0.0
C532 C 0.05442 0.49033 0.09855 0.0
C533 C 0.06550 0.48464 0.12044 0.0
C534 C 0.07658 0.47894 0.14232 0.0
C535 C 0.09326 0.47366 0.13539 0.0
C536 C 0.10433 0.46797 0.15729 0.0
C537 C 0.09873 0.46756 0.18611 0.0
C538 C 0.08205 0.47284 0.19304 0.0
C539 C 0.07098 0.47853 0.17114 0.0
C540 C 0.10981 0.46188 0.20800 0.0
C541 C 0.10422 0.46148 0.23682 0.0
C542 C 0.11531 0.45580 0.25870 0.0
C543 C 0.13198 0.45050 0.25176 0.0
C544 C 0.13757 0.45090 0.22292 0.0
C545 C 0.12648 0.45659 0.20105 0.0
C546 C 0.14307 0.44482 0.27363 0.0
C547 C 0.15417 0.43912 0.29548 0.0
H548 H 0.09740 0.47396 0.11405 0.0
H549 H 0.11667 0.46406 0.15216 0.0
H550 H 0.07791 0.47254 0.21437 0.0
H551 H 0.05863 0.48243 0.17627 0.0
H552 H 0.09188 0.46539 0.24197 0.0
H553 H 0.11118 0.45551 0.28005 0.0
H554 H 0.14991 0.44699 0.21778 0.0
H555 H 0.13062 0.45688 0.17970 0.0
C556 C 0.95513 0.52591 0.90313 0.0
C557 C 0.94419 0.53195 0.88131 0.0
C558 C 0.93325 0.53799 0.85950 0.0
C559 C 0.94009 0.54383 0.83323 0.0
C560 C 0.92914 0.54986 0.81142 0.0
C561 C 0.91135 0.55006 0.81588 0.0
C562 C 0.90451 0.54423 0.84215 0.0
C563 C 0.91546 0.53820 0.86395 0.0
C564 C 0.90041 0.55609 0.79406 0.0
C565 C 0.88262 0.55629 0.79850 0.0
C566 C 0.87168 0.56232 0.77667 0.0
C567 C 0.87854 0.56816 0.75042 0.0
C568 C 0.89633 0.56797 0.74598 0.0
C569 C 0.90726 0.56194 0.76780 0.0
C570 C 0.86760 0.57420 0.72859 0.0
C571 C 0.85668 0.58024 0.70674 0.0
H572 H 0.95326 0.54368 0.82993 0.0
H573 H 0.93421 0.55418 0.79198 0.0
H574 H 0.89134 0.54438 0.84545 0.0
H575 H 0.91039 0.53388 0.88340 0.0
H576 H 0.87754 0.55197 0.81794 0.0
H577 H 0.85851 0.56245 0.77995 0.0
H578 H 0.90140 0.57229 0.72654 0.0
H579 H 0.92044 0.56180 0.76453 0.0
C580 C 0.48927 0.95951 0.90301 0.0
C581 C 0.48322 0.94854 0.88115 0.0
C582 C 0.47717 0.93757 0.85930 0.0
C583 C 0.45977 0.93771 0.85152 0.0
C584 C 0.45373 0.92674 0.82967 0.0
C585 C 0.46509 0.91562 0.81559 0.0
C586 C 0.48249 0.91547 0.82336 0.0
C587 C 0.48852 0.92644 0.84522 0.0
C588 C 0.45904 0.90466 0.79371 0.0
C589 C 0.47040 0.89355 0.77962 0.0
C590 C 0.46435 0.88259 0.75775 0.0
C591 C 0.44694 0.88273 0.75000 0.0
C592 C 0.43559 0.89385 0.76410 0.0
C593 C 0.44164 0.90481 0.78596 0.0
C594 C 0.44089 0.87177 0.72813 0.0
C595 C 0.43481 0.86082 0.70628 0.0
H596 H 0.45136 0.94595 0.86195 0.0
H597 H 0.44085 0.92686 0.82391 0.0
H598 H 0.49090 0.90724 0.81294 0.0
H599 H 0.50140 0.92633 0.85099 0.0
H600 H 0.48328 0.89343 0.78536 0.0
H601 H 0.47275 0.87436 0.74730 0.0
H602 H 0.42270 0.89396 0.75835 0.0
H603 H 0.43323 0.91304 0.79641 0.0
