data_{}
_symmetry_space_group_name_H-M    P1
_symmetry_Int_Tables_number       1
_symmetry_cell_setting            triclinic
loop_
_symmetry_equiv_pos_as_xyz
'x, y, z'
_cell_length_a     74.198
_cell_length_b     73.156
_cell_length_c     38.226
_cell_angle_alpha  89.864
_cell_angle_beta   90.377
_cell_angle_gamma  98.345
loop_
_atom_site_label
_atom_site_type_symbol
_atom_site_fract_x
_atom_site_fract_y
_atom_site_fract_z
_atom_type_partial_charge
Mg0 Mg 0.00710 0.50025 0.00010 0.0
C1 C 0.98185 0.48516 0.06447 0.0
C2 C 0.03236 0.51535 0.93581 0.0
O3 O 0.02713 0.50230 0.03909 0.0
O4 O 0.01859 0.51374 0.08949 0.0
O5 O 0.98726 0.48683 0.03384 0.0
O6 O 0.99042 0.49229 0.09124 0.0
O7 O 0.98708 0.49821 0.96119 0.0
O8 O 0.99562 0.48677 0.91078 0.0
O9 O 0.02695 0.51368 0.96644 0.0
C10 C 0.03024 0.51266 0.06451 0.0
C11 C 0.98397 0.48785 0.93576 0.0
O12 O 0.02379 0.50822 0.90904 0.0
Mg13 Mg 0.50707 0.00010 0.00010 0.0
C14 C 0.49232 0.02166 0.06441 0.0
C15 C 0.52182 0.97890 0.93591 0.0
O16 O 0.50895 0.98055 0.03901 0.0
O17 O 0.52029 0.99249 0.08966 0.0
O18 O 0.49394 0.01662 0.03377 0.0
O19 O 0.49929 0.01499 0.09124 0.0
O20 O 0.50518 0.02001 0.96131 0.0
O21 O 0.49385 0.00807 0.91066 0.0
O22 O 0.52020 0.98394 0.96655 0.0
C23 C 0.51915 0.98035 0.06458 0.0
C24 C 0.49499 0.02021 0.93573 0.0
O25 O 0.51484 0.98557 0.90908 0.0
C26 C 0.53750 0.48886 0.50568 0.0
C27 C 0.53220 0.50594 0.50373 0.0
C28 C 0.51391 0.50843 0.50077 0.0
H29 H 0.47313 0.48426 0.49591 0.0
C30 C 0.48999 0.52753 0.49497 0.0
C31 C 0.50783 0.52598 0.49794 0.0
H32 H 0.52778 0.46137 0.50717 0.0
C33 C 0.47671 0.51170 0.49462 0.0
C34 C 0.48202 0.49462 0.49657 0.0
C35 C 0.50030 0.49212 0.49953 0.0
C36 C 0.50638 0.47458 0.50236 0.0
C37 C 0.52423 0.47303 0.50534 0.0
H38 H 0.48643 0.53919 0.49313 0.0
H39 H 0.54108 0.51630 0.50439 0.0
C40 C 0.15184 0.58293 0.26667 0.0
C41 C 0.15309 0.56550 0.28871 0.0
C42 C 0.16606 0.56662 0.32049 0.0
C43 C 0.16752 0.54930 0.34274 0.0
C44 C 0.18057 0.55056 0.37443 0.0
C45 C 0.19215 0.56911 0.38373 0.0
C46 C 0.19065 0.58643 0.36157 0.0
C47 C 0.17761 0.58518 0.32992 0.0
C48 C 0.20255 0.55317 0.43677 0.0
C49 C 0.21471 0.55876 0.46871 0.0
C50 C 0.23511 0.55714 0.46750 0.0
C51 C 0.24779 0.56607 0.49666 0.0
C52 C 0.23980 0.57453 0.52889 0.0
C53 C 0.21911 0.57453 0.53150 0.0
C54 C 0.20655 0.56666 0.50133 0.0
C55 C 0.18605 0.56804 0.50254 0.0
C56 C 0.24300 0.54803 0.43584 0.0
C57 C 0.25261 0.58357 0.55782 0.0
C58 C 0.26849 0.56679 0.49352 0.0
C59 C 0.29628 0.58908 0.48489 0.0
C60 C 0.30629 0.57233 0.49092 0.0
C61 C 0.32724 0.57505 0.49297 0.0
C62 C 0.33812 0.59451 0.48897 0.0
C63 C 0.32810 0.61125 0.48264 0.0
C64 C 0.30716 0.60853 0.48060 0.0
C65 C 0.35905 0.59719 0.49138 0.0
C66 C 0.36897 0.58039 0.49787 0.0
C67 C 0.21101 0.58332 0.56318 0.0
C68 C 0.19865 0.57531 0.62147 0.0
C69 C 0.19531 0.59554 0.62371 0.0
C70 C 0.18290 0.60142 0.65243 0.0
C71 C 0.17384 0.58702 0.67875 0.0
C72 C 0.17724 0.56680 0.67651 0.0
C73 C 0.18966 0.56094 0.64784 0.0
C74 C 0.16128 0.59277 0.70730 0.0
C75 C 0.15217 0.57823 0.73327 0.0
O76 O 0.20480 0.57053 0.41489 0.0
O77 O 0.21005 0.56934 0.59236 0.0
O78 O 0.27578 0.58649 0.48404 0.0
H79 H 0.16049 0.59658 0.27396 0.0
H80 H 0.14446 0.55182 0.28151 0.0
H81 H 0.15895 0.53556 0.33576 0.0
H82 H 0.18166 0.53777 0.39097 0.0
H83 H 0.19919 0.60017 0.36861 0.0
H84 H 0.17651 0.59798 0.31346 0.0
H85 H 0.20742 0.54130 0.42198 0.0
H86 H 0.18777 0.54932 0.44517 0.0
H87 H 0.18332 0.57739 0.52512 0.0
H88 H 0.17797 0.55370 0.50650 0.0
H89 H 0.18175 0.57411 0.47684 0.0
H90 H 0.23331 0.54799 0.41255 0.0
H91 H 0.24460 0.53318 0.44284 0.0
H92 H 0.25687 0.55596 0.42878 0.0
H93 H 0.24432 0.58989 0.57838 0.0
H94 H 0.26293 0.59485 0.54573 0.0
H95 H 0.26011 0.57272 0.57055 0.0
H96 H 0.27445 0.56303 0.51968 0.0
H97 H 0.27191 0.55699 0.47221 0.0
H98 H 0.29820 0.55793 0.49403 0.0
H99 H 0.33468 0.56267 0.49752 0.0
H100 H 0.33617 0.62565 0.47955 0.0
H101 H 0.29969 0.62091 0.47607 0.0
H102 H 0.36719 0.61157 0.48841 0.0
H103 H 0.36079 0.56603 0.50082 0.0
H104 H 0.21988 0.59670 0.57131 0.0
H105 H 0.19670 0.58617 0.55629 0.0
H106 H 0.20191 0.60612 0.60400 0.0
H107 H 0.18036 0.61639 0.65414 0.0
H108 H 0.17051 0.55617 0.69603 0.0
H109 H 0.19211 0.54595 0.64599 0.0
H110 H 0.15871 0.60773 0.70917 0.0
H111 H 0.15478 0.56329 0.73129 0.0
C112 C 0.42686 0.12432 0.26886 0.0
C113 C 0.44404 0.13059 0.29103 0.0
C114 C 0.44294 0.14334 0.32269 0.0
C115 C 0.46002 0.14979 0.34507 0.0
C116 C 0.45878 0.16259 0.37664 0.0
C117 C 0.44049 0.16893 0.38570 0.0
C118 C 0.42341 0.16243 0.36341 0.0
C119 C 0.42465 0.14966 0.33188 0.0
C120 C 0.45621 0.18397 0.43878 0.0
C121 C 0.45069 0.19460 0.47058 0.0
C122 C 0.45229 0.21577 0.46922 0.0
C123 C 0.44350 0.22597 0.49820 0.0
C124 C 0.43515 0.21533 0.53043 0.0
C125 C 0.43515 0.19433 0.53321 0.0
C126 C 0.44291 0.18396 0.50320 0.0
C127 C 0.44155 0.16276 0.50457 0.0
C128 C 0.46128 0.22649 0.43756 0.0
C129 C 0.42624 0.22562 0.55918 0.0
C130 C 0.44279 0.24676 0.49488 0.0
C131 C 0.42082 0.26850 0.48584 0.0
C132 C 0.43733 0.28350 0.49193 0.0
C133 C 0.43465 0.30395 0.49378 0.0
C134 C 0.41546 0.30935 0.48954 0.0
C135 C 0.39896 0.29435 0.48316 0.0
C136 C 0.40164 0.27390 0.48131 0.0
C137 C 0.41283 0.32980 0.49175 0.0
C138 C 0.42939 0.34471 0.49830 0.0
C139 C 0.42648 0.18349 0.56488 0.0
C140 C 0.43438 0.17314 0.62333 0.0
C141 C 0.41443 0.16387 0.62544 0.0
C142 C 0.40863 0.14951 0.65422 0.0
C143 C 0.42282 0.14443 0.68073 0.0
C144 C 0.44276 0.15375 0.67862 0.0
C145 C 0.44855 0.16813 0.64990 0.0
C146 C 0.41715 0.12996 0.70933 0.0
C147 C 0.43149 0.12487 0.73549 0.0
O148 O 0.43909 0.18127 0.41674 0.0
O149 O 0.44027 0.18651 0.59418 0.0
O150 O 0.42336 0.24846 0.48519 0.0
H151 H 0.41340 0.12912 0.27597 0.0
H152 H 0.45753 0.12583 0.28401 0.0
H153 H 0.47356 0.14511 0.33827 0.0
H154 H 0.47139 0.16737 0.39328 0.0
H155 H 0.40986 0.16709 0.37028 0.0
H156 H 0.41203 0.14487 0.31533 0.0
H157 H 0.46791 0.19239 0.42405 0.0
H158 H 0.46000 0.17008 0.44734 0.0
H159 H 0.43233 0.15722 0.52710 0.0
H160 H 0.45568 0.15871 0.50871 0.0
H161 H 0.43556 0.15670 0.47885 0.0
H162 H 0.46132 0.21673 0.41435 0.0
H163 H 0.47592 0.23241 0.44467 0.0
H164 H 0.45346 0.23828 0.43032 0.0
H165 H 0.42001 0.21533 0.57976 0.0
H166 H 0.41512 0.23285 0.54692 0.0
H167 H 0.43694 0.23635 0.57193 0.0
H168 H 0.44650 0.25383 0.52103 0.0
H169 H 0.45245 0.25313 0.47363 0.0
H170 H 0.45152 0.27946 0.49522 0.0
H171 H 0.44686 0.31508 0.49837 0.0
H172 H 0.38476 0.29836 0.47989 0.0
H173 H 0.38943 0.26275 0.47674 0.0
H174 H 0.39865 0.33389 0.48860 0.0
H175 H 0.44355 0.34058 0.50143 0.0
H176 H 0.41329 0.18859 0.57283 0.0
H177 H 0.42367 0.16817 0.55809 0.0
H178 H 0.40400 0.16755 0.60559 0.0
H179 H 0.39387 0.14259 0.65583 0.0
H180 H 0.45324 0.14996 0.69828 0.0
H181 H 0.46333 0.17496 0.64815 0.0
H182 H 0.40241 0.12300 0.71111 0.0
H183 H 0.44622 0.13185 0.73361 0.0
C184 C 0.86257 0.41900 0.73360 0.0
C185 C 0.85633 0.40157 0.71165 0.0
C186 C 0.84368 0.40269 0.67987 0.0
C187 C 0.83727 0.38537 0.65772 0.0
C188 C 0.82457 0.38662 0.62602 0.0
C189 C 0.81830 0.40518 0.61662 0.0
C190 C 0.82476 0.42250 0.63869 0.0
C191 C 0.83744 0.42125 0.67033 0.0
C192 C 0.80334 0.38924 0.56367 0.0
C193 C 0.79279 0.39483 0.53169 0.0
C194 C 0.77192 0.39321 0.53291 0.0
C195 C 0.76179 0.40214 0.50371 0.0
C196 C 0.77220 0.41060 0.47142 0.0
C197 C 0.79290 0.41060 0.46881 0.0
C198 C 0.80320 0.40273 0.49903 0.0
C199 C 0.82409 0.40411 0.49781 0.0
C200 C 0.76142 0.38410 0.56462 0.0
C201 C 0.76198 0.41964 0.44244 0.0
C202 C 0.74129 0.40286 0.50685 0.0
C203 C 0.71988 0.42515 0.51535 0.0
C204 C 0.70508 0.40840 0.50941 0.0
C205 C 0.68492 0.41112 0.50735 0.0
C206 C 0.67960 0.43058 0.51124 0.0
C207 C 0.69441 0.44732 0.51748 0.0
C208 C 0.71458 0.44460 0.51953 0.0
C209 C 0.65944 0.43326 0.50882 0.0
C210 C 0.64472 0.41646 0.50242 0.0
C211 C 0.80351 0.41939 0.43709 0.0
C212 C 0.81357 0.41137 0.37885 0.0
C213 C 0.82271 0.43161 0.37649 0.0
C214 C 0.83680 0.43749 0.34774 0.0
C215 C 0.84174 0.42309 0.32150 0.0
C216 C 0.83255 0.40287 0.32385 0.0
C217 C 0.81845 0.39700 0.35255 0.0
C218 C 0.85594 0.42884 0.29292 0.0
C219 C 0.86089 0.41430 0.26703 0.0
O220 O 0.80606 0.40660 0.58545 0.0
O221 O 0.80046 0.40541 0.40799 0.0
O222 O 0.73965 0.42256 0.51621 0.0
H223 H 0.85783 0.43265 0.72624 0.0
H224 H 0.86104 0.38789 0.71893 0.0
H225 H 0.84190 0.37163 0.66477 0.0
H226 H 0.81982 0.37384 0.60955 0.0
H227 H 0.82016 0.43624 0.63156 0.0
H228 H 0.84220 0.43405 0.68673 0.0
H229 H 0.79508 0.37737 0.57852 0.0
H230 H 0.81702 0.38539 0.55528 0.0
H231 H 0.82950 0.41345 0.47518 0.0
H232 H 0.82808 0.38977 0.49393 0.0
H233 H 0.83013 0.41018 0.52348 0.0
H234 H 0.77110 0.38406 0.58791 0.0
H235 H 0.75557 0.36925 0.55771 0.0
H236 H 0.74982 0.39203 0.57164 0.0
H237 H 0.77208 0.42596 0.42185 0.0
H238 H 0.75489 0.43092 0.45447 0.0
H239 H 0.75137 0.40879 0.42978 0.0
H240 H 0.73426 0.39910 0.48070 0.0
H241 H 0.73507 0.39306 0.52820 0.0
H242 H 0.70906 0.39400 0.50638 0.0
H243 H 0.67393 0.39874 0.50287 0.0
H244 H 0.69046 0.46172 0.52049 0.0
H245 H 0.72559 0.45698 0.52400 0.0
H246 H 0.65541 0.44764 0.51171 0.0
H247 H 0.64878 0.40210 0.49955 0.0
H248 H 0.79847 0.43277 0.42889 0.0
H249 H 0.81863 0.42224 0.44396 0.0
H250 H 0.81913 0.44219 0.39615 0.0
H251 H 0.84362 0.45246 0.34595 0.0
H252 H 0.83624 0.39224 0.30439 0.0
H253 H 0.81172 0.38202 0.35448 0.0
H254 H 0.86279 0.44380 0.29096 0.0
H255 H 0.85401 0.39936 0.26909 0.0
C256 C 0.58589 0.87604 0.73144 0.0
C257 C 0.60308 0.87482 0.70968 0.0
C258 C 0.60197 0.86175 0.67800 0.0
C259 C 0.61906 0.86033 0.65603 0.0
C260 C 0.61782 0.84716 0.62443 0.0
C261 C 0.59952 0.83544 0.61493 0.0
C262 C 0.58245 0.83691 0.63681 0.0
C263 C 0.58368 0.85005 0.66836 0.0
C264 C 0.61524 0.82502 0.56223 0.0
C265 C 0.60973 0.81278 0.53030 0.0
C266 C 0.61133 0.79208 0.53170 0.0
C267 C 0.60253 0.77929 0.50251 0.0
C268 C 0.59418 0.78747 0.47007 0.0
C269 C 0.59419 0.80847 0.46729 0.0
C270 C 0.60194 0.82113 0.49749 0.0
C271 C 0.60058 0.84192 0.49608 0.0
C272 C 0.62032 0.78400 0.56357 0.0
C273 C 0.58527 0.77455 0.44110 0.0
C274 C 0.60182 0.75828 0.50581 0.0
C275 C 0.57985 0.73007 0.51431 0.0
C276 C 0.59637 0.71994 0.50862 0.0
C277 C 0.59369 0.69870 0.50670 0.0
C278 C 0.57450 0.68765 0.51048 0.0
C279 C 0.55799 0.69780 0.51646 0.0
C280 C 0.56067 0.71903 0.51837 0.0
C281 C 0.57186 0.66643 0.50820 0.0
C282 C 0.58842 0.65639 0.50206 0.0
C283 C 0.58552 0.81675 0.43541 0.0
C284 C 0.59342 0.82943 0.37715 0.0
C285 C 0.57346 0.83283 0.37455 0.0
C286 C 0.56767 0.84548 0.34564 0.0
C287 C 0.58186 0.85474 0.31948 0.0
C288 C 0.60180 0.85129 0.32206 0.0
C289 C 0.60758 0.83862 0.35092 0.0
C290 C 0.57619 0.86754 0.29073 0.0
C291 C 0.59053 0.87685 0.26492 0.0
O292 O 0.59813 0.82269 0.58385 0.0
O293 O 0.59930 0.81780 0.40644 0.0
O294 O 0.58240 0.75087 0.51503 0.0
H295 H 0.57244 0.86728 0.72400 0.0
H296 H 0.61656 0.88355 0.71703 0.0
H297 H 0.63260 0.86900 0.66316 0.0
H298 H 0.63043 0.84610 0.60810 0.0
H299 H 0.56890 0.82826 0.62961 0.0
H300 H 0.57106 0.85112 0.68461 0.0
H301 H 0.62694 0.82005 0.57724 0.0
H302 H 0.61903 0.84004 0.55376 0.0
H303 H 0.59136 0.84475 0.47333 0.0
H304 H 0.61471 0.85013 0.49229 0.0
H305 H 0.59459 0.84621 0.52165 0.0
H306 H 0.62035 0.79377 0.58678 0.0
H307 H 0.63496 0.78239 0.55682 0.0
H308 H 0.61250 0.76991 0.57062 0.0
H309 H 0.57904 0.78301 0.42037 0.0
H310 H 0.57416 0.76406 0.45310 0.0
H311 H 0.59598 0.76697 0.42861 0.0
H312 H 0.60553 0.75231 0.47975 0.0
H313 H 0.61149 0.75476 0.52729 0.0
H314 H 0.61056 0.72816 0.50568 0.0
H315 H 0.60590 0.69116 0.50241 0.0
H316 H 0.54379 0.68960 0.51939 0.0
H317 H 0.54847 0.72659 0.52265 0.0
H318 H 0.55769 0.65816 0.51101 0.0
H319 H 0.60258 0.66469 0.49927 0.0
H320 H 0.57233 0.80778 0.42714 0.0
H321 H 0.58271 0.83125 0.44213 0.0
H322 H 0.56304 0.82608 0.39415 0.0
H323 H 0.55291 0.84806 0.34367 0.0
H324 H 0.61228 0.85816 0.30266 0.0
H325 H 0.62236 0.83613 0.35303 0.0
H326 H 0.56144 0.87016 0.28860 0.0
H327 H 0.60526 0.87421 0.26716 0.0
C328 C 0.42576 0.54692 0.49986 0.0
C329 C 0.40555 0.53833 0.50002 0.0
C330 C 0.39060 0.55091 0.49995 0.0
C331 C 0.45568 0.52180 0.49996 0.0
C332 C 0.41609 0.58064 0.49956 0.0
C333 C 0.43103 0.56807 0.49964 0.0
C334 C 0.44071 0.53435 0.49991 0.0
C335 C 0.39587 0.57206 0.49972 0.0
H336 H 0.40164 0.52268 0.50020 0.0
H337 H 0.37563 0.54456 0.50008 0.0
H338 H 0.41999 0.59630 0.49940 0.0
H339 H 0.44600 0.57442 0.49953 0.0
C340 C 0.46273 0.41199 0.50011 0.0
C341 C 0.47108 0.39391 0.50018 0.0
C342 C 0.45860 0.37516 0.50013 0.0
C343 C 0.48767 0.44951 0.50018 0.0
C344 C 0.42939 0.39256 0.49993 0.0
C345 C 0.44188 0.41131 0.49999 0.0
C346 C 0.47521 0.43075 0.50015 0.0
C347 C 0.43775 0.37448 0.50000 0.0
H348 H 0.48651 0.39441 0.50028 0.0
H349 H 0.46478 0.36178 0.50019 0.0
H350 H 0.41397 0.39206 0.49984 0.0
H351 H 0.43570 0.42470 0.49995 0.0
C352 C 0.58841 0.45358 0.50043 0.0
C353 C 0.58315 0.43243 0.50038 0.0
C354 C 0.59810 0.41988 0.50045 0.0
C355 C 0.55853 0.47873 0.50034 0.0
C356 C 0.62359 0.44961 0.50061 0.0
C357 C 0.60863 0.46217 0.50053 0.0
C358 C 0.57346 0.46615 0.50038 0.0
C359 C 0.61832 0.42846 0.50057 0.0
H360 H 0.56818 0.42607 0.50029 0.0
H361 H 0.59421 0.40422 0.50040 0.0
H362 H 0.63856 0.45597 0.50069 0.0
H363 H 0.61252 0.47783 0.50056 0.0
C364 C 0.55148 0.58857 0.50026 0.0
C365 C 0.54311 0.60665 0.50038 0.0
C366 C 0.55560 0.62540 0.50042 0.0
C367 C 0.52654 0.55104 0.50013 0.0
C368 C 0.58481 0.60801 0.50023 0.0
C369 C 0.57232 0.58926 0.50019 0.0
C370 C 0.53900 0.56981 0.50020 0.0
C371 C 0.57644 0.62608 0.50034 0.0
H372 H 0.52769 0.60615 0.50044 0.0
H373 H 0.54941 0.63878 0.50052 0.0
H374 H 0.60023 0.60852 0.50017 0.0
H375 H 0.57850 0.57587 0.50011 0.0
C376 C 0.08391 0.54916 0.81150 0.0
C377 C 0.08620 0.53088 0.82968 0.0
C378 C 0.08069 0.54015 0.86342 0.0
C379 C 0.07851 0.55850 0.84505 0.0
C380 C 0.10375 0.55574 0.82305 0.0
C381 C 0.09825 0.56502 0.85677 0.0
C382 C 0.10593 0.53739 0.84144 0.0
C383 C 0.10053 0.54673 0.87497 0.0
C384 C 0.06627 0.53031 0.88853 0.0
C385 C 0.05184 0.52045 0.91362 0.0
C386 C 0.11815 0.56540 0.79769 0.0
C387 C 0.13255 0.57504 0.77231 0.0
H388 H 0.08212 0.55269 0.78273 0.0
H389 H 0.07810 0.51644 0.82729 0.0
H390 H 0.06513 0.56312 0.85325 0.0
H391 H 0.10635 0.57945 0.85916 0.0
H392 H 0.11933 0.53280 0.83330 0.0
H393 H 0.10229 0.54324 0.90376 0.0
C394 C 0.46633 0.06840 0.81258 0.0
C395 C 0.47937 0.07696 0.84148 0.0
C396 C 0.46866 0.06253 0.86593 0.0
C397 C 0.45555 0.05406 0.83685 0.0
C398 C 0.45341 0.08167 0.82539 0.0
C399 C 0.44269 0.06724 0.84982 0.0
C400 C 0.46652 0.09014 0.85448 0.0
C401 C 0.45573 0.07580 0.87873 0.0
C402 C 0.47829 0.05062 0.89121 0.0
C403 C 0.48795 0.03871 0.91647 0.0
C404 C 0.44397 0.09369 0.79999 0.0
C405 C 0.43456 0.10572 0.77457 0.0
H406 H 0.46736 0.06911 0.78285 0.0
H407 H 0.49461 0.07703 0.84556 0.0
H408 H 0.45437 0.03835 0.83776 0.0
H409 H 0.42745 0.06718 0.84574 0.0
H410 H 0.46766 0.10584 0.85363 0.0
H411 H 0.45468 0.07504 0.90846 0.0
C412 C 0.92186 0.43436 0.15375 0.0
C413 C 0.91697 0.44741 0.12474 0.0
C414 C 0.93371 0.46075 0.13766 0.0
C415 C 0.93849 0.44763 0.16684 0.0
C416 C 0.91065 0.44515 0.17803 0.0
C417 C 0.92739 0.45848 0.19096 0.0
C418 C 0.90587 0.45828 0.14884 0.0
C419 C 0.92250 0.47154 0.16195 0.0
C420 C 0.94806 0.47045 0.11226 0.0
C421 C 0.96241 0.48014 0.08683 0.0
C422 C 0.89618 0.43536 0.20310 0.0
C423 C 0.88169 0.42555 0.22813 0.0
H424 H 0.91771 0.41889 0.15785 0.0
H425 H 0.91733 0.44628 0.09503 0.0
H426 H 0.95368 0.44666 0.16616 0.0
H427 H 0.92701 0.45962 0.22068 0.0
H428 H 0.89069 0.45928 0.14960 0.0
H429 H 0.92669 0.48701 0.15789 0.0
C430 C 0.54030 0.92095 0.17852 0.0
C431 C 0.54690 0.94170 0.17371 0.0
C432 C 0.54526 0.93770 0.13412 0.0
C433 C 0.53874 0.91686 0.13911 0.0
C434 C 0.56052 0.91856 0.17465 0.0
C435 C 0.55888 0.91455 0.13506 0.0
C436 C 0.56704 0.93940 0.16964 0.0
C437 C 0.56547 0.93530 0.13024 0.0
C438 C 0.53571 0.94973 0.10893 0.0
C439 C 0.52615 0.96178 0.08379 0.0
C440 C 0.57003 0.90666 0.20015 0.0
C441 C 0.57955 0.89478 0.22568 0.0
H442 H 0.53424 0.91271 0.20206 0.0
H443 H 0.54016 0.95433 0.18007 0.0
H444 H 0.52639 0.91238 0.12160 0.0
H445 H 0.56562 0.90192 0.12871 0.0
H446 H 0.57941 0.94387 0.18708 0.0
H447 H 0.57151 0.94350 0.10664 0.0
C448 C 0.44358 0.07264 0.14610 0.0
C449 C 0.46049 0.08069 0.12512 0.0
C450 C 0.46867 0.06354 0.13749 0.0
C451 C 0.45169 0.05557 0.15865 0.0
C452 C 0.45352 0.08257 0.17784 0.0
C453 C 0.46168 0.06542 0.19022 0.0
C454 C 0.47050 0.09054 0.15668 0.0
C455 C 0.47860 0.07347 0.16924 0.0
C456 C 0.47813 0.05171 0.11210 0.0
C457 C 0.48758 0.03990 0.08669 0.0
C458 C 0.44403 0.09454 0.20291 0.0
C459 C 0.43454 0.10652 0.22794 0.0
H460 H 0.42892 0.07559 0.14505 0.0
H461 H 0.46269 0.08270 0.09579 0.0
H462 H 0.44782 0.04026 0.15246 0.0
H463 H 0.45949 0.06343 0.21956 0.0
H464 H 0.47439 0.10583 0.16295 0.0
H465 H 0.49325 0.07047 0.17031 0.0
C466 C 0.08336 0.55995 0.17303 0.0
C467 C 0.08605 0.56032 0.13319 0.0
C468 C 0.07964 0.53931 0.13470 0.0
C469 C 0.07705 0.53900 0.17472 0.0
C470 C 0.10286 0.55501 0.17509 0.0
C471 C 0.09645 0.53399 0.17663 0.0
C472 C 0.10544 0.55530 0.13506 0.0
C473 C 0.09913 0.53436 0.13678 0.0
C474 C 0.06512 0.52959 0.10936 0.0
C475 C 0.05059 0.51990 0.08400 0.0
C476 C 0.11737 0.56492 0.20024 0.0
C477 C 0.13188 0.57485 0.22536 0.0
H478 H 0.08189 0.57143 0.19245 0.0
H479 H 0.07850 0.56670 0.11130 0.0
H480 H 0.06331 0.53067 0.18146 0.0
H481 H 0.10401 0.52762 0.19851 0.0
H482 H 0.11921 0.56359 0.12834 0.0
H483 H 0.10058 0.52285 0.11741 0.0
C484 C 0.92670 0.46020 0.81328 0.0
C485 C 0.92160 0.47119 0.84504 0.0
C486 C 0.93468 0.46065 0.86596 0.0
C487 C 0.93967 0.44959 0.83402 0.0
C488 C 0.91146 0.44495 0.82557 0.0
C489 C 0.92455 0.43441 0.84647 0.0
C490 C 0.90648 0.45601 0.85752 0.0
C491 C 0.91946 0.44540 0.87824 0.0
C492 C 0.94917 0.47056 0.89117 0.0
C493 C 0.96364 0.48049 0.91636 0.0
C494 C 0.89691 0.43524 0.80029 0.0
C495 C 0.88236 0.42555 0.77499 0.0
H496 H 0.92523 0.46260 0.78399 0.0
H497 H 0.92456 0.48655 0.85148 0.0
H498 H 0.95508 0.45005 0.83288 0.0
H499 H 0.92158 0.41905 0.84003 0.0
H500 H 0.89106 0.45551 0.85871 0.0
H501 H 0.92096 0.44298 0.90752 0.0
C502 C 0.56177 0.91580 0.86281 0.0
C503 C 0.56608 0.93700 0.86305 0.0
C504 C 0.54525 0.93671 0.86305 0.0
C505 C 0.54101 0.91543 0.86262 0.0
C506 C 0.56040 0.91767 0.82270 0.0
C507 C 0.53957 0.91737 0.82269 0.0
C508 C 0.56464 0.93895 0.82312 0.0
C509 C 0.54387 0.93856 0.82294 0.0
C510 C 0.53587 0.94865 0.88835 0.0
C511 C 0.52651 0.96060 0.91367 0.0
C512 C 0.56997 0.90582 0.79756 0.0
C513 C 0.57957 0.89398 0.77243 0.0
H514 H 0.57051 0.90469 0.86964 0.0
H515 H 0.57261 0.94702 0.88385 0.0
H516 H 0.53025 0.91059 0.88310 0.0
H517 H 0.53304 0.90735 0.80187 0.0
H518 H 0.57535 0.94379 0.80258 0.0
H519 H 0.53509 0.94965 0.81614 0.0
