data_{}
_symmetry_space_group_name_H-M    P1
_symmetry_Int_Tables_number       1
_symmetry_cell_setting            triclinic
loop_
_symmetry_equiv_pos_as_xyz
'x, y, z'
_cell_length_a     70.841
_cell_length_b     74.100
_cell_length_c     35.731
_cell_angle_alpha  89.999
_cell_angle_beta   90.146
_cell_angle_gamma  122.675
loop_
_atom_site_label
_atom_site_type_symbol
_atom_site_fract_x
_atom_site_fract_y
_atom_site_fract_z
_atom_type_partial_charge
C0 C 0.98800 0.03490 0.00010 0.0
C1 C 0.98251 0.01176 0.00010 0.0
C2 C 0.00161 0.00764 0.00010 0.0
C3 C 0.02621 0.02666 0.00010 0.0
C4 C 0.03171 0.04980 0.00010 0.0
C5 C 0.01260 0.05392 0.00010 0.0
C6 C 0.97292 0.04399 0.00010 0.0
N7 N 0.98820 0.06863 0.00010 0.0
C8 C 0.01273 0.07477 0.00010 0.0
C9 C 0.05740 0.06514 0.00010 0.0
N10 N 0.06779 0.05147 0.00010 0.0
C11 C 0.04852 0.02769 0.00010 0.0
C12 C 0.99099 0.98321 0.00010 0.0
N13 N 0.96532 0.97224 0.00010 0.0
C14 C 0.96008 0.98988 0.00010 0.0
H15 H 0.95392 0.03587 0.00010 0.0
H16 H 0.02700 0.09237 0.00010 0.0
H17 H 0.06871 0.08338 0.00010 0.0
H18 H 0.05240 0.01463 0.00010 0.0
H19 H 0.99868 0.97310 0.00010 0.0
H20 H 0.94192 0.98533 0.00010 0.0
C21 C 0.82847 0.36100 0.75377 0.0
C22 C 0.81170 0.34132 0.77718 0.0
C23 C 0.82010 0.33474 0.81110 0.0
C24 C 0.80355 0.31505 0.83474 0.0
C25 C 0.81214 0.30857 0.86857 0.0
C26 C 0.83725 0.32177 0.87862 0.0
C27 C 0.85376 0.34148 0.85508 0.0
C28 C 0.84519 0.34795 0.82130 0.0
C29 C 0.82709 0.29822 0.93515 0.0
C30 C 0.83951 0.29699 0.96929 0.0
C31 C 0.84938 0.28293 0.96786 0.0
C32 C 0.86543 0.28501 0.99990 0.0
C33 C 0.86940 0.29905 0.03367 0.0
C34 C 0.85775 0.31151 0.03659 0.0
C35 C 0.84281 0.31051 0.00431 0.0
C36 C 0.83266 0.32436 0.00576 0.0
C37 C 0.84470 0.26825 0.93385 0.0
C38 C 0.88565 0.30117 0.06462 0.0
C39 C 0.87781 0.27332 0.99557 0.0
C40 C 0.91579 0.28079 0.98637 0.0
C41 C 0.90464 0.25656 0.99261 0.0
C42 C 0.91915 0.24690 0.99469 0.0
C43 C 0.94478 0.26149 0.99052 0.0
C44 C 0.95592 0.28571 0.98397 0.0
C45 C 0.94140 0.29537 0.98190 0.0
C46 C 0.95924 0.25178 0.99299 0.0
C47 C 0.94798 0.22756 0.99990 0.0
C48 C 0.86198 0.32596 0.07061 0.0
C49 C 0.84696 0.32474 0.13297 0.0
C50 C 0.86535 0.34875 0.13558 0.0
C51 C 0.86424 0.36264 0.16644 0.0
C52 C 0.84470 0.35247 0.19452 0.0
C53 C 0.82635 0.32844 0.19192 0.0
C54 C 0.82748 0.31456 0.16112 0.0
C55 C 0.84338 0.36630 0.22519 0.0
C56 C 0.82366 0.35601 0.25290 0.0
O57 O 0.84576 0.31571 0.91189 0.0
O58 O 0.84741 0.31137 0.10171 0.0
O59 O 0.90166 0.29033 0.98557 0.0
H60 H 0.84702 0.37063 0.76164 0.0
H61 H 0.79315 0.33165 0.76941 0.0
H62 H 0.78497 0.30528 0.82720 0.0
H63 H 0.79992 0.29403 0.88614 0.0
H64 H 0.87234 0.35128 0.86269 0.0
H65 H 0.85741 0.36252 0.80381 0.0
H66 H 0.81794 0.28238 0.91919 0.0
H67 H 0.81491 0.30295 0.94420 0.0
H68 H 0.84047 0.33618 0.03002 0.0
H69 H 0.81374 0.31365 0.00991 0.0
H70 H 0.83635 0.33353 0.97834 0.0
H71 H 0.83922 0.27403 0.90900 0.0
H72 H 0.83072 0.25116 0.94119 0.0
H73 H 0.86046 0.26851 0.92628 0.0
H74 H 0.88730 0.31304 0.08673 0.0
H75 H 0.90276 0.30720 0.05173 0.0
H76 H 0.87899 0.28486 0.07809 0.0
H77 H 0.87738 0.26566 0.02349 0.0
H78 H 0.86993 0.26059 0.97267 0.0
H79 H 0.88566 0.24580 0.99585 0.0
H80 H 0.91093 0.22896 0.99990 0.0
H81 H 0.97489 0.29650 0.98075 0.0
H82 H 0.94961 0.31332 0.97720 0.0
H83 H 0.97823 0.26250 0.98990 0.0
H84 H 0.92899 0.21688 0.00279 0.0
H85 H 0.88037 0.33517 0.07937 0.0
H86 H 0.85679 0.33768 0.06336 0.0
H87 H 0.87968 0.35626 0.11455 0.0
H88 H 0.87781 0.38044 0.16842 0.0
H89 H 0.81190 0.32096 0.21274 0.0
H90 H 0.81385 0.29680 0.15898 0.0
H91 H 0.85692 0.38411 0.22736 0.0
H92 H 0.81016 0.33820 0.25063 0.0
C93 C 0.55340 0.23058 0.24925 0.0
C94 C 0.54839 0.21104 0.22573 0.0
C95 C 0.53253 0.20417 0.19177 0.0
C96 C 0.52729 0.18462 0.16802 0.0
C97 C 0.51134 0.17785 0.13415 0.0
C98 C 0.50066 0.19062 0.12417 0.0
C99 C 0.50595 0.21019 0.14782 0.0
C100 C 0.52187 0.21695 0.18164 0.0
C101 C 0.48461 0.16699 0.06751 0.0
C102 C 0.47066 0.16545 0.03335 0.0
C103 C 0.44494 0.15097 0.03470 0.0
C104 C 0.43099 0.15268 0.00352 0.0
C105 C 0.44267 0.16681 0.96898 0.0
C106 C 0.46842 0.17973 0.96613 0.0
C107 C 0.48242 0.17907 0.99841 0.0
C108 C 0.50820 0.19335 0.99705 0.0
C109 C 0.43326 0.13620 0.06863 0.0
C110 C 0.42858 0.16858 0.93804 0.0
C111 C 0.40537 0.14054 0.00693 0.0
C112 C 0.37524 0.14719 0.01616 0.0
C113 C 0.35945 0.12290 0.00979 0.0
C114 C 0.33394 0.11276 0.00765 0.0
C115 C 0.32428 0.12693 0.01189 0.0
C116 C 0.34008 0.15121 0.01858 0.0
C117 C 0.36559 0.16135 0.02072 0.0
C118 C 0.29878 0.11675 0.00936 0.0
C119 C 0.28310 0.09247 0.00250 0.0
C120 C 0.48029 0.19427 0.93220 0.0
C121 C 0.49415 0.19340 0.86983 0.0
C122 C 0.50236 0.21729 0.86735 0.0
C123 C 0.51901 0.23138 0.83657 0.0
C124 C 0.52745 0.22155 0.80844 0.0
C125 C 0.51917 0.19765 0.81091 0.0
C126 C 0.50250 0.18355 0.84163 0.0
C127 C 0.54426 0.23561 0.77785 0.0
C128 C 0.55273 0.22565 0.75009 0.0
O129 O 0.48525 0.18427 0.09087 0.0
O130 O 0.47873 0.17983 0.90102 0.0
O131 O 0.40023 0.15720 0.01702 0.0
H132 H 0.54537 0.23988 0.24143 0.0
H133 H 0.55638 0.20168 0.23345 0.0
H134 H 0.53519 0.17516 0.17551 0.0
H135 H 0.50746 0.16340 0.11650 0.0
H136 H 0.49808 0.21967 0.14026 0.0
H137 H 0.52577 0.23142 0.19921 0.0
H138 H 0.47617 0.15116 0.08338 0.0
H139 H 0.50225 0.17208 0.05849 0.0
H140 H 0.51351 0.20514 0.97286 0.0
H141 H 0.51541 0.18296 0.99284 0.0
H142 H 0.51473 0.20256 0.02452 0.0
H143 H 0.44527 0.14219 0.09352 0.0
H144 H 0.42831 0.11921 0.06119 0.0
H145 H 0.41758 0.13608 0.07619 0.0
H146 H 0.44018 0.18057 0.91600 0.0
H147 H 0.41798 0.17427 0.95096 0.0
H148 H 0.41710 0.15221 0.92448 0.0
H149 H 0.39725 0.13278 0.97897 0.0
H150 H 0.39913 0.12783 0.02976 0.0
H151 H 0.36665 0.11245 0.00649 0.0
H152 H 0.32221 0.09478 0.00284 0.0
H153 H 0.33291 0.16168 0.02186 0.0
H154 H 0.37734 0.17934 0.02551 0.0
H155 H 0.29152 0.12715 0.01252 0.0
H156 H 0.29041 0.08211 0.99990 0.0
H157 H 0.47194 0.20315 0.92348 0.0
H158 H 0.49866 0.20627 0.93951 0.0
H159 H 0.49623 0.22454 0.88843 0.0
H160 H 0.52516 0.24910 0.83469 0.0
H161 H 0.52546 0.19042 0.79005 0.0
H162 H 0.49647 0.16588 0.84367 0.0
H163 H 0.55045 0.25332 0.77579 0.0
H164 H 0.54650 0.20793 0.75226 0.0
C165 C 0.65263 0.50254 0.75285 0.0
C166 C 0.67353 0.50878 0.77645 0.0
C167 C 0.67966 0.52379 0.81036 0.0
C168 C 0.70056 0.53025 0.83418 0.0
C169 C 0.70658 0.54533 0.86800 0.0
C170 C 0.69171 0.55394 0.87785 0.0
C171 C 0.67080 0.54743 0.85412 0.0
C172 C 0.66479 0.53238 0.82035 0.0
C173 C 0.71613 0.57056 0.93455 0.0
C174 C 0.71661 0.58339 0.96864 0.0
C175 C 0.73021 0.60801 0.96722 0.0
C176 C 0.72713 0.62054 0.99831 0.0
C177 C 0.71271 0.60871 0.03284 0.0
C178 C 0.70083 0.58419 0.03576 0.0
C179 C 0.70276 0.57152 0.00357 0.0
C180 C 0.68939 0.54685 0.00500 0.0
C181 C 0.74532 0.61990 0.93331 0.0
C182 C 0.70957 0.62136 0.06369 0.0
C183 C 0.73818 0.64487 0.99482 0.0
C184 C 0.72831 0.67169 0.98538 0.0
C185 C 0.75347 0.68814 0.99180 0.0
C186 C 0.76234 0.71220 0.99385 0.0
C187 C 0.74604 0.71976 0.98948 0.0
C188 C 0.72088 0.70330 0.98274 0.0
C189 C 0.71202 0.67924 0.98070 0.0
C190 C 0.75495 0.74382 0.99192 0.0
C191 C 0.78011 0.76016 0.99882 0.0
C192 C 0.68597 0.57215 0.06968 0.0
C193 C 0.68812 0.55963 0.13213 0.0
C194 C 0.66274 0.55010 0.13453 0.0
C195 C 0.64879 0.53375 0.16532 0.0
C196 C 0.66025 0.52694 0.19356 0.0
C197 C 0.68565 0.53652 0.19117 0.0
C198 C 0.69960 0.55289 0.16043 0.0
C199 C 0.64636 0.51045 0.22417 0.0
C200 C 0.65797 0.50361 0.25203 0.0
O201 O 0.69732 0.56849 0.91110 0.0
O202 O 0.70160 0.57481 0.10093 0.0
O203 O 0.71954 0.64811 0.98461 0.0
H204 H 0.64177 0.50903 0.76057 0.0
H205 H 0.68444 0.50233 0.76882 0.0
H206 H 0.71157 0.52388 0.82679 0.0
H207 H 0.72202 0.55010 0.88571 0.0
H208 H 0.65977 0.55377 0.86158 0.0
H209 H 0.64933 0.52758 0.80272 0.0
H210 H 0.73269 0.57961 0.91872 0.0
H211 H 0.71210 0.55410 0.94364 0.0
H212 H 0.67697 0.54101 0.02915 0.0
H213 H 0.70135 0.54120 0.00930 0.0
H214 H 0.67989 0.54013 0.97752 0.0
H215 H 0.73982 0.60846 0.90846 0.0
H216 H 0.76345 0.62586 0.94081 0.0
H217 H 0.74410 0.63416 0.92566 0.0
H218 H 0.69747 0.60978 0.08573 0.0
H219 H 0.70243 0.63051 0.05068 0.0
H220 H 0.72645 0.63321 0.07728 0.0
H221 H 0.74595 0.65293 0.02278 0.0
H222 H 0.75152 0.65164 0.97203 0.0
H223 H 0.76550 0.68249 0.99520 0.0
H224 H 0.78096 0.72441 0.99869 0.0
H225 H 0.70883 0.70891 0.97936 0.0
H226 H 0.69338 0.66700 0.97587 0.0
H227 H 0.74296 0.74952 0.98867 0.0
H228 H 0.79206 0.75441 0.00205 0.0
H229 H 0.67555 0.57897 0.07830 0.0
H230 H 0.67445 0.55442 0.06241 0.0
H231 H 0.65429 0.55505 0.11338 0.0
H232 H 0.62998 0.52663 0.16714 0.0
H233 H 0.69408 0.53144 0.21211 0.0
H234 H 0.71837 0.55990 0.15846 0.0
H235 H 0.62755 0.50329 0.22617 0.0
H236 H 0.67678 0.51080 0.24992 0.0
O237 O 0.66369 0.36844 0.54719 0.0
Be238 Be 0.70413 0.36634 0.54340 0.0
Be239 Be 0.68747 0.39149 0.45960 0.0
O240 O 0.71845 0.35939 0.56795 0.0
Be241 Be 0.68748 0.39151 0.54332 0.0
O242 O 0.71574 0.37251 0.62126 0.0
O243 O 0.68565 0.40889 0.43511 0.0
Be244 Be 0.70412 0.36633 0.45969 0.0
O245 O 0.69603 0.40218 0.38184 0.0
O246 O 0.67761 0.34737 0.45560 0.0
O247 O 0.67763 0.34738 0.54726 0.0
O248 O 0.68567 0.40891 0.56778 0.0
O249 O 0.69607 0.40222 0.62115 0.0
H250 H 0.72031 0.39940 0.56531 0.0
H251 H 0.72029 0.39938 0.43791 0.0
O252 O 0.71842 0.35937 0.43528 0.0
O253 O 0.71569 0.37247 0.38194 0.0
H254 H 0.72334 0.36473 0.50164 0.0
H255 H 0.69163 0.41264 0.50147 0.0
O256 O 0.66367 0.36842 0.45552 0.0
O257 O 0.70732 0.38854 0.55368 0.0
O258 O 0.70730 0.38853 0.44943 0.0
O259 O 0.71084 0.36578 0.50158 0.0
O260 O 0.68893 0.39888 0.50146 0.0
C261 C 0.72133 0.36224 0.60344 0.0
C262 C 0.68890 0.41115 0.39964 0.0
C263 C 0.68893 0.41119 0.60328 0.0
C264 C 0.72129 0.36221 0.39981 0.0
C265 C 0.66135 0.35013 0.55106 0.0
C266 C 0.66134 0.35012 0.45164 0.0
H267 H 0.81857 0.37688 0.74433 0.0
H268 H 0.81210 0.37423 0.66945 0.0
H269 H 0.76722 0.34757 0.70821 0.0
H270 H 0.78886 0.37767 0.71008 0.0
H271 H 0.73120 0.34649 0.59836 0.0
H272 H 0.73766 0.34915 0.67325 0.0
H273 H 0.78254 0.37580 0.63449 0.0
H274 H 0.76090 0.34571 0.63261 0.0
C275 C 0.81288 0.36665 0.72612 0.0
C276 C 0.80222 0.36343 0.68773 0.0
C277 C 0.78051 0.36367 0.69077 0.0
C278 C 0.73688 0.35672 0.61658 0.0
C279 C 0.74754 0.35995 0.65496 0.0
C280 C 0.76926 0.35971 0.65193 0.0
H281 H 0.56491 0.23620 0.31607 0.0
H282 H 0.60920 0.26680 0.31663 0.0
H283 H 0.58357 0.28447 0.35183 0.0
H284 H 0.58638 0.26137 0.36716 0.0
H285 H 0.64987 0.34009 0.40459 0.0
H286 H 0.60558 0.30949 0.40402 0.0
H287 H 0.63121 0.29183 0.36882 0.0
H288 H 0.62840 0.31493 0.35349 0.0
C289 C 0.57434 0.24954 0.30646 0.0
C290 C 0.59700 0.26931 0.31641 0.0
C291 C 0.59597 0.27789 0.35549 0.0
C292 C 0.64044 0.32676 0.41420 0.0
C293 C 0.61778 0.30698 0.40424 0.0
C294 C 0.61881 0.29840 0.36516 0.0
H295 H 0.58948 0.25326 0.72610 0.0
H296 H 0.58799 0.25206 0.65050 0.0
H297 H 0.59996 0.29584 0.67704 0.0
H298 H 0.61564 0.28169 0.68297 0.0
H299 H 0.62538 0.32309 0.55758 0.0
H300 H 0.62687 0.32428 0.63318 0.0
H301 H 0.61490 0.28050 0.60664 0.0
H302 H 0.59922 0.29466 0.60072 0.0
C303 C 0.58161 0.25458 0.70729 0.0
C304 C 0.58538 0.26123 0.66640 0.0
C305 C 0.60572 0.28466 0.66257 0.0
C306 C 0.63325 0.32177 0.57639 0.0
C307 C 0.62949 0.31512 0.61728 0.0
C308 C 0.60914 0.29169 0.62111 0.0
H309 H 0.63341 0.47300 0.28403 0.0
H310 H 0.66924 0.46963 0.27471 0.0
H311 H 0.65826 0.46652 0.35723 0.0
H312 H 0.64097 0.44830 0.31661 0.0
H313 H 0.70145 0.43763 0.37983 0.0
H314 H 0.66562 0.44100 0.38915 0.0
H315 H 0.67660 0.44410 0.30663 0.0
H316 H 0.69389 0.46233 0.34725 0.0
C317 C 0.64811 0.48016 0.29095 0.0
C318 C 0.66585 0.47489 0.29715 0.0
C319 C 0.65826 0.45776 0.32834 0.0
C320 C 0.68675 0.43047 0.37291 0.0
C321 C 0.66901 0.43573 0.36671 0.0
C322 C 0.67660 0.45287 0.33552 0.0
H323 H 0.63855 0.48289 0.69819 0.0
H324 H 0.67962 0.48962 0.68726 0.0
H325 H 0.64556 0.44201 0.69550 0.0
H326 H 0.64793 0.46169 0.65855 0.0
H327 H 0.69636 0.42779 0.64338 0.0
H328 H 0.65529 0.42106 0.65431 0.0
H329 H 0.68935 0.46868 0.64608 0.0
H330 H 0.68698 0.44899 0.68302 0.0
C331 C 0.64839 0.48068 0.71055 0.0
C332 C 0.66718 0.47744 0.70040 0.0
C333 C 0.65799 0.45720 0.67548 0.0
C334 C 0.68652 0.43000 0.63103 0.0
C335 C 0.66773 0.43324 0.64117 0.0
C336 C 0.67693 0.45349 0.66610 0.0
H337 H 0.83120 0.37568 0.30079 0.0
H338 H 0.79477 0.37589 0.27890 0.0
H339 H 0.78256 0.34609 0.34512 0.0
H340 H 0.80355 0.37625 0.34139 0.0
H341 H 0.71851 0.34767 0.36419 0.0
H342 H 0.75494 0.34746 0.38608 0.0
H343 H 0.76715 0.37726 0.31986 0.0
H344 H 0.74616 0.34710 0.32359 0.0
C345 C 0.81713 0.36625 0.29187 0.0
C346 C 0.79458 0.36416 0.29177 0.0
C347 C 0.78649 0.36308 0.33252 0.0
C348 C 0.73258 0.35710 0.37311 0.0
C349 C 0.75513 0.35919 0.37321 0.0
C350 C 0.76322 0.36027 0.33246 0.0
C351 C 0.00461 0.10890 0.98693 0.0
C352 C 0.00412 0.12943 0.98615 0.0
C353 C 0.98289 0.12865 0.99853 0.0
C354 C 0.96219 0.10736 0.01185 0.0
C355 C 0.96269 0.08684 0.01269 0.0
C356 C 0.98389 0.08761 0.00010 0.0
C357 C 0.98234 0.14914 0.99748 0.0
C358 C 0.96102 0.14832 0.00945 0.0
C359 C 0.96030 0.16870 0.00738 0.0
C360 C 0.93890 0.16786 0.01885 0.0
C361 C 0.93813 0.18820 0.01647 0.0
C362 C 0.95878 0.20941 0.00273 0.0
C363 C 0.98022 0.21027 0.99145 0.0
C364 C 0.98098 0.18992 0.99379 0.0
H365 H 0.02031 0.10947 0.97769 0.0
H366 H 0.01947 0.14520 0.97640 0.0
H367 H 0.94648 0.10678 0.02109 0.0
H368 H 0.94736 0.07109 0.02257 0.0
H369 H 0.99772 0.16492 0.98783 0.0
H370 H 0.94580 0.13264 0.01983 0.0
H371 H 0.92363 0.15218 0.02911 0.0
H372 H 0.92227 0.18757 0.02487 0.0
H373 H 0.99553 0.22597 0.98136 0.0
H374 H 0.99686 0.19056 0.98546 0.0
C375 C 0.11440 0.08250 0.01124 0.0
C376 C 0.13906 0.08905 0.01182 0.0
C377 C 0.14505 0.07251 0.00191 0.0
C378 C 0.12639 0.04945 0.99126 0.0
C379 C 0.10174 0.04291 0.99061 0.0
C380 C 0.09574 0.05943 0.00010 0.0
C381 C 0.16970 0.07902 0.00278 0.0
C382 C 0.17568 0.06242 0.99329 0.0
C383 C 0.20027 0.06881 0.99519 0.0
C384 C 0.20627 0.05217 0.98621 0.0
C385 C 0.23084 0.05852 0.98843 0.0
C386 C 0.24942 0.08153 0.99990 0.0
C387 C 0.24344 0.09820 0.00830 0.0
C388 C 0.21887 0.09185 0.00612 0.0
H389 H 0.10996 0.09474 0.01865 0.0
H390 H 0.15288 0.10615 0.01960 0.0
H391 H 0.13083 0.03721 0.98385 0.0
H392 H 0.08793 0.02584 0.98270 0.0
H393 H 0.18351 0.09614 0.01045 0.0
H394 H 0.16192 0.04543 0.98488 0.0
H395 H 0.19252 0.03514 0.97791 0.0
H396 H 0.23527 0.04618 0.98188 0.0
H397 H 0.25719 0.11526 0.01642 0.0
H398 H 0.21444 0.10419 0.01261 0.0
C399 C 0.94708 0.92526 0.00010 0.0
C400 C 0.92769 0.90152 0.99990 0.0
C401 C 0.90323 0.89555 0.99860 0.0
C402 C 0.89817 0.91332 0.99856 0.0
C403 C 0.91756 0.93705 0.99990 0.0
C404 C 0.94202 0.94302 0.00010 0.0
C405 C 0.88384 0.87182 0.99812 0.0
C406 C 0.85937 0.86582 0.99791 0.0
C407 C 0.84001 0.84208 0.99848 0.0
C408 C 0.81552 0.83604 0.99880 0.0
C409 C 0.79618 0.81230 0.99990 0.0
C410 C 0.80131 0.79458 0.00010 0.0
C411 C 0.82579 0.80061 0.99990 0.0
C412 C 0.84513 0.82436 0.99880 0.0
H413 H 0.96519 0.92968 0.00010 0.0
H414 H 0.93144 0.88838 0.99990 0.0
H415 H 0.88006 0.90890 0.99801 0.0
H416 H 0.91380 0.95019 0.99990 0.0
H417 H 0.88761 0.85868 0.99791 0.0
H418 H 0.85560 0.87896 0.99734 0.0
H419 H 0.81172 0.84916 0.99836 0.0
H420 H 0.77805 0.80783 0.00010 0.0
H421 H 0.82960 0.78751 0.99990 0.0
H422 H 0.86326 0.82882 0.99840 0.0
