data_{}
_symmetry_space_group_name_H-M    P1
_symmetry_Int_Tables_number       1
_symmetry_cell_setting            triclinic
loop_
_symmetry_equiv_pos_as_xyz
'x, y, z'
_cell_length_a     61.076
_cell_length_b     47.010
_cell_length_c     32.792
_cell_angle_alpha  82.099
_cell_angle_beta   96.128
_cell_angle_gamma  91.318
loop_
_atom_site_label
_atom_site_type_symbol
_atom_site_fract_x
_atom_site_fract_y
_atom_site_fract_z
_atom_type_partial_charge
C0 C 0.98010 0.01357 0.09089 0.0
C1 C 0.98703 0.98191 0.09527 0.0
C2 C 0.01158 0.97424 0.09826 0.0
C3 C 0.02920 0.99822 0.09686 0.0
C4 C 0.02227 0.02988 0.09248 0.0
C5 C 0.99772 0.03755 0.08949 0.0
H6 H 0.99259 0.06099 0.08625 0.0
H7 H 0.01671 0.95081 0.10150 0.0
Zn8 Zn 0.48841 0.55862 0.65994 0.0
Zn9 Zn 0.51878 0.45142 0.53107 0.0
Zn10 Zn 0.50305 0.50503 0.59259 0.0
C11 C 0.53081 0.54027 0.65299 0.0
C12 C 0.47670 0.47177 0.53334 0.0
C13 C 0.47161 0.50260 0.66155 0.0
C14 C 0.48003 0.56337 0.57319 0.0
C15 C 0.48208 0.58549 0.72409 0.0
O16 O 0.46721 0.52901 0.66947 0.0
O17 O 0.49064 0.49732 0.65131 0.0
O18 O 0.48808 0.45906 0.51105 0.0
O19 O 0.48303 0.47477 0.57123 0.0
O20 O 0.52636 0.47450 0.61297 0.0
O21 O 0.52255 0.43228 0.58701 0.0
C22 C 0.52562 0.44865 0.61648 0.0
O23 O 0.52448 0.42262 0.49761 0.0
O24 O 0.56111 0.42476 0.51517 0.0
C25 C 0.54274 0.41424 0.49440 0.0
O26 O 0.48274 0.57728 0.60282 0.0
O27 O 0.48007 0.53654 0.57687 0.0
O28 O 0.51516 0.51397 0.53803 0.0
C29 C 0.53279 0.50774 0.52635 0.0
O30 O 0.51953 0.55207 0.67685 0.0
O31 O 0.52420 0.53609 0.61616 0.0
O32 O 0.53793 0.48379 0.51739 0.0
O33 O 0.48035 0.59040 0.68788 0.0
O34 O 0.48705 0.56273 0.74639 0.0
C35 C 0.32505 0.44567 0.33398 0.0
C36 C 0.33397 0.42060 0.31507 0.0
C37 C 0.32075 0.40961 0.27763 0.0
C38 C 0.32941 0.38449 0.25844 0.0
C39 C 0.31602 0.37361 0.22104 0.0
C40 C 0.29401 0.38783 0.20300 0.0
C41 C 0.28540 0.41299 0.22209 0.0
C42 C 0.29876 0.42386 0.25944 0.0
C43 C 0.29322 0.35599 0.14741 0.0
C44 C 0.27820 0.35192 0.10803 0.0
C45 C 0.25925 0.32987 0.11011 0.0
C46 C 0.24179 0.32986 0.07268 0.0
C47 C 0.24474 0.34930 0.03179 0.0
C48 C 0.26493 0.36940 0.02870 0.0
C49 C 0.28166 0.37074 0.06691 0.0
C50 C 0.30085 0.39254 0.06491 0.0
C51 C 0.25676 0.30964 0.15059 0.0
C52 C 0.22709 0.34932 0.99458 0.0
C53 C 0.22117 0.31073 0.07611 0.0
C54 C 0.18116 0.31428 0.07756 0.0
C55 C 0.18111 0.28160 0.07706 0.0
C56 C 0.15912 0.26500 0.07367 0.0
C57 C 0.13723 0.28111 0.07078 0.0
C58 C 0.13730 0.31378 0.07162 0.0
C59 C 0.15929 0.33038 0.07501 0.0
C60 C 0.11528 0.26445 0.06698 0.0
C61 C 0.11536 0.23180 0.06597 0.0
C62 C 0.26780 0.38939 0.98834 0.0
C63 C 0.28462 0.39054 0.92348 0.0
C64 C 0.27617 0.42155 0.91298 0.0
C65 C 0.28493 0.44172 0.87719 0.0
C66 C 0.30216 0.43084 0.85209 0.0
C67 C 0.31054 0.39980 0.86258 0.0
C68 C 0.30176 0.37962 0.89831 0.0
C69 C 0.31113 0.45099 0.81655 0.0
C70 C 0.32849 0.43995 0.79191 0.0
O71 O 0.28093 0.37756 0.16616 0.0
O72 O 0.27690 0.37122 0.95976 0.0
O73 O 0.20264 0.33065 0.07950 0.0
H74 H 0.30873 0.45600 0.32019 0.0
H75 H 0.35028 0.41021 0.32877 0.0
H76 H 0.34570 0.37396 0.27190 0.0
H77 H 0.32240 0.35505 0.20674 0.0
H78 H 0.26913 0.42355 0.20855 0.0
H79 H 0.29238 0.44244 0.27364 0.0
H80 H 0.29532 0.33495 0.16927 0.0
H81 H 0.30988 0.36508 0.13907 0.0
H82 H 0.29815 0.40807 0.03495 0.0
H83 H 0.31704 0.38075 0.06586 0.0
H84 H 0.30146 0.40499 0.09250 0.0
H85 H 0.26618 0.31895 0.17772 0.0
H86 H 0.26381 0.28774 0.14821 0.0
H87 H 0.23863 0.30703 0.15576 0.0
H88 H 0.23156 0.36608 0.96813 0.0
H89 H 0.21048 0.35474 0.00431 0.0
H90 H 0.22609 0.32718 0.98399 0.0
H91 H 0.21761 0.29985 0.04709 0.0
H92 H 0.22347 0.29392 0.10476 0.0
H93 H 0.19734 0.26974 0.07903 0.0
H94 H 0.15905 0.24080 0.07320 0.0
H95 H 0.12108 0.32568 0.06963 0.0
H96 H 0.15939 0.35460 0.07546 0.0
H97 H 0.09902 0.27626 0.06486 0.0
H98 H 0.13165 0.22006 0.06811 0.0
H99 H 0.25143 0.39914 0.97368 0.0
H100 H 0.28009 0.40719 0.99522 0.0
H101 H 0.26356 0.42959 0.93186 0.0
H102 H 0.27874 0.46472 0.86936 0.0
H103 H 0.32331 0.39181 0.84395 0.0
H104 H 0.30805 0.35670 0.90631 0.0
H105 H 0.30498 0.47400 0.80853 0.0
H106 H 0.33460 0.41693 0.80004 0.0
C107 C 0.55796 0.20468 0.77174 0.0
C108 C 0.54991 0.17846 0.79995 0.0
C109 C 0.56457 0.16603 0.83919 0.0
C110 C 0.55678 0.13975 0.86766 0.0
C111 C 0.57161 0.12744 0.90680 0.0
C112 C 0.59417 0.14140 0.91730 0.0
C113 C 0.60191 0.16771 0.88892 0.0
C114 C 0.58711 0.18000 0.84984 0.0
C115 C 0.59729 0.10696 0.98323 0.0
C116 C 0.61382 0.10145 0.02202 0.0
C117 C 0.63242 0.07971 0.02378 0.0
C118 C 0.65129 0.07841 0.05898 0.0
C119 C 0.65017 0.09616 0.09484 0.0
C120 C 0.63040 0.11588 0.09488 0.0
C121 C 0.61222 0.11856 0.05837 0.0
C122 C 0.59339 0.14005 0.05665 0.0
C123 C 0.63308 0.06113 0.98866 0.0
C124 C 0.66923 0.09491 0.12978 0.0
C125 C 0.67147 0.05970 0.05822 0.0
C126 C 0.71096 0.06409 0.04952 0.0
C127 C 0.71096 0.03117 0.06006 0.0
C128 C 0.73280 0.01473 0.06522 0.0
C129 C 0.75459 0.03124 0.05983 0.0
C130 C 0.75456 0.06416 0.04895 0.0
C131 C 0.73272 0.08061 0.04379 0.0
C132 C 0.77641 0.01472 0.06543 0.0
C133 C 0.77631 0.98181 0.07649 0.0
C134 C 0.62935 0.13421 0.13002 0.0
C135 C 0.61553 0.13225 0.19788 0.0
C136 C 0.62440 0.16317 0.19768 0.0
C137 C 0.61734 0.18177 0.22905 0.0
C138 C 0.60137 0.16941 0.26043 0.0
C139 C 0.59257 0.13845 0.26065 0.0
C140 C 0.59966 0.11985 0.22935 0.0
C141 C 0.59408 0.18798 0.29159 0.0
C142 C 0.57797 0.17548 0.32258 0.0
O143 O 0.60867 0.12971 0.95573 0.0
O144 O 0.62156 0.11451 0.16593 0.0
O145 O 0.68968 0.08024 0.04582 0.0
H146 H 0.57471 0.21479 0.78001 0.0
H147 H 0.53317 0.16828 0.79179 0.0
H148 H 0.54008 0.12942 0.85978 0.0
H149 H 0.56588 0.10802 0.92796 0.0
H150 H 0.61859 0.17807 0.89688 0.0
H151 H 0.59284 0.19945 0.82877 0.0
H152 H 0.59423 0.08668 0.96789 0.0
H153 H 0.58120 0.11544 0.99142 0.0
H154 H 0.59738 0.15445 0.08178 0.0
H155 H 0.57732 0.12792 0.06179 0.0
H156 H 0.59162 0.15377 0.02499 0.0
H157 H 0.62262 0.07149 0.95978 0.0
H158 H 0.62617 0.03885 0.99888 0.0
H159 H 0.65077 0.05907 0.98144 0.0
H160 H 0.66599 0.11056 0.15207 0.0
H161 H 0.68524 0.10110 0.11571 0.0
H162 H 0.67063 0.07218 0.14715 0.0
H163 H 0.67623 0.04755 0.09039 0.0
H164 H 0.66793 0.04397 0.03475 0.0
H165 H 0.69481 0.01900 0.06421 0.0
H166 H 0.73284 0.99035 0.07312 0.0
H167 H 0.77069 0.07636 0.04481 0.0
H168 H 0.73265 0.10500 0.03591 0.0
H169 H 0.79260 0.02682 0.06144 0.0
H170 H 0.76009 0.96977 0.08044 0.0
H171 H 0.64618 0.14370 0.13935 0.0
H172 H 0.61695 0.15218 0.11948 0.0
H173 H 0.63606 0.17232 0.17417 0.0
H174 H 0.62384 0.20470 0.22894 0.0
H175 H 0.58074 0.12936 0.28392 0.0
H176 H 0.59305 0.09699 0.22927 0.0
H177 H 0.60055 0.21092 0.29168 0.0
H178 H 0.57153 0.15254 0.32237 0.0
C179 C 0.45421 0.80052 0.43285 0.0
C180 C 0.43684 0.78362 0.40806 0.0
C181 C 0.42388 0.79882 0.36852 0.0
C182 C 0.40640 0.78223 0.34343 0.0
C183 C 0.39348 0.79766 0.30397 0.0
C184 C 0.39805 0.82961 0.28975 0.0
C185 C 0.41557 0.84614 0.31473 0.0
C186 C 0.42847 0.83075 0.35414 0.0
C187 C 0.37175 0.82459 0.22688 0.0
C188 C 0.36345 0.84391 0.18691 0.0
C189 C 0.34251 0.86171 0.18533 0.0
C190 C 0.33673 0.88507 0.14830 0.0
C191 C 0.35025 0.88818 0.11084 0.0
C192 C 0.36999 0.86839 0.11095 0.0
C193 C 0.37662 0.84626 0.14908 0.0
C194 C 0.39744 0.82811 0.15068 0.0
C195 C 0.32850 0.85781 0.22217 0.0
C196 C 0.34446 0.91178 0.07405 0.0
C197 C 0.31763 0.90563 0.14877 0.0
C198 C 0.31071 0.95644 0.15290 0.0
C199 C 0.28627 0.94796 0.14558 0.0
C200 C 0.26843 0.97119 0.13974 0.0
C201 C 0.27507 0.00285 0.14123 0.0
C202 C 0.29953 0.01129 0.14891 0.0
C203 C 0.31736 0.98806 0.15474 0.0
C204 C 0.25719 0.02604 0.13497 0.0
C205 C 0.23278 0.01744 0.12712 0.0
C206 C 0.38392 0.87173 0.07415 0.0
C207 C 0.38611 0.85377 0.00796 0.0
C208 C 0.40679 0.87287 0.00422 0.0
C209 C 0.42247 0.86873 0.97179 0.0
C210 C 0.41744 0.84543 0.94330 0.0
C211 C 0.39672 0.82640 0.94702 0.0
C212 C 0.38103 0.83057 0.97938 0.0
C213 C 0.43316 0.84100 0.91112 0.0
C214 C 0.42807 0.81748 0.88305 0.0
O215 O 0.38569 0.84479 0.25095 0.0
O216 O 0.37134 0.85682 0.04100 0.0
O217 O 0.32818 0.93383 0.15725 0.0
H218 H 0.45742 0.82418 0.42185 0.0
H219 H 0.43358 0.75997 0.41896 0.0
H220 H 0.40302 0.75858 0.35407 0.0
H221 H 0.38056 0.78543 0.28530 0.0
H222 H 0.41898 0.86978 0.30402 0.0
H223 H 0.44141 0.84298 0.37271 0.0
H224 H 0.35746 0.81554 0.24451 0.0
H225 H 0.38221 0.80653 0.21954 0.0
H226 H 0.40713 0.83679 0.12374 0.0
H227 H 0.39257 0.80477 0.14840 0.0
H228 H 0.40804 0.82944 0.18117 0.0
H229 H 0.33885 0.84736 0.25112 0.0
H230 H 0.31373 0.84338 0.21485 0.0
H231 H 0.32240 0.87954 0.22774 0.0
H232 H 0.35694 0.91170 0.05058 0.0
H233 H 0.34491 0.93352 0.08583 0.0
H234 H 0.32723 0.90768 0.05876 0.0
H235 H 0.30742 0.90845 0.11730 0.0
H236 H 0.30682 0.89716 0.17413 0.0
H237 H 0.28139 0.92451 0.14430 0.0
H238 H 0.25032 0.96497 0.13421 0.0
H239 H 0.30443 0.03473 0.15016 0.0
H240 H 0.33549 0.99426 0.16025 0.0
H241 H 0.26200 0.04952 0.13607 0.0
H242 H 0.22802 0.99394 0.12604 0.0
H243 H 0.38665 0.89533 0.06214 0.0
H244 H 0.40046 0.86077 0.08424 0.0
H245 H 0.41056 0.88992 0.02561 0.0
H246 H 0.43783 0.88280 0.96898 0.0
H247 H 0.39304 0.80916 0.92589 0.0
H248 H 0.36576 0.81638 0.98238 0.0
H249 H 0.44853 0.85504 0.90811 0.0
H250 H 0.41268 0.80349 0.88617 0.0
C251 C 0.67132 0.58599 0.83627 0.0
C252 C 0.68753 0.56821 0.86860 0.0
C253 C 0.69915 0.58206 0.90507 0.0
C254 C 0.71546 0.56459 0.93760 0.0
C255 C 0.72705 0.57868 0.97392 0.0
C256 C 0.72232 0.61019 0.97758 0.0
C257 C 0.70597 0.62760 0.94516 0.0
C258 C 0.69440 0.61354 0.90889 0.0
C259 C 0.74612 0.60293 0.04537 0.0
C260 C 0.75309 0.62086 0.08035 0.0
C261 C 0.77433 0.63900 0.07935 0.0
C262 C 0.77895 0.66107 0.10981 0.0
C263 C 0.76387 0.66247 0.14424 0.0
C264 C 0.74375 0.64227 0.14750 0.0
C265 C 0.73834 0.62147 0.11545 0.0
C266 C 0.71722 0.60297 0.11655 0.0
C267 C 0.78987 0.63680 0.04583 0.0
C268 C 0.76851 0.68480 0.17439 0.0
C269 C 0.79846 0.68207 0.10566 0.0
C270 C 0.80630 0.73347 0.08682 0.0
C271 C 0.83045 0.72498 0.10014 0.0
C272 C 0.84846 0.74838 0.10127 0.0
C273 C 0.84229 0.78022 0.08908 0.0
C274 C 0.81814 0.78867 0.07542 0.0
C275 C 0.80012 0.76527 0.07430 0.0
C276 C 0.86034 0.80355 0.09065 0.0
C277 C 0.88443 0.79492 0.10452 0.0
C278 C 0.72829 0.64392 0.18115 0.0
C279 C 0.72312 0.62309 0.25228 0.0
C280 C 0.70244 0.64187 0.24722 0.0
C281 C 0.68529 0.63614 0.27859 0.0
C282 C 0.68886 0.61159 0.31484 0.0
C283 C 0.70958 0.59289 0.31991 0.0
C284 C 0.72673 0.59864 0.28859 0.0
C285 C 0.67168 0.60558 0.34606 0.0
C286 C 0.67532 0.58083 0.38196 0.0
O287 O 0.73338 0.62405 0.01323 0.0
O288 O 0.73937 0.62773 0.22051 0.0
O289 O 0.78859 0.71064 0.08703 0.0
H290 H 0.66798 0.60930 0.83948 0.0
H291 H 0.69093 0.54490 0.86550 0.0
H292 H 0.71897 0.54128 0.93478 0.0
H293 H 0.73911 0.56580 0.99807 0.0
H294 H 0.70243 0.65090 0.94805 0.0
H295 H 0.68232 0.62643 0.88483 0.0
H296 H 0.76108 0.59476 0.03261 0.0
H297 H 0.73505 0.58431 0.05679 0.0
H298 H 0.70650 0.61046 0.13933 0.0
H299 H 0.72170 0.57946 0.12670 0.0
H300 H 0.70783 0.60542 0.08432 0.0
H301 H 0.78051 0.62732 0.01880 0.0
H302 H 0.80421 0.62218 0.05963 0.0
H303 H 0.79654 0.65898 0.03444 0.0
H304 H 0.75500 0.68357 0.19603 0.0
H305 H 0.76885 0.70715 0.15589 0.0
H306 H 0.78515 0.68028 0.19328 0.0
H307 H 0.80747 0.68376 0.13753 0.0
H308 H 0.81024 0.67474 0.08452 0.0
H309 H 0.83497 0.70141 0.10932 0.0
H310 H 0.86636 0.74216 0.11121 0.0
H311 H 0.81359 0.81224 0.06626 0.0
H312 H 0.78221 0.77147 0.06437 0.0
H313 H 0.85587 0.82716 0.08163 0.0
H314 H 0.88884 0.77130 0.11351 0.0
H315 H 0.72538 0.66714 0.18544 0.0
H316 H 0.71192 0.63307 0.17219 0.0
H317 H 0.69977 0.65985 0.22014 0.0
H318 H 0.66993 0.64997 0.27490 0.0
H319 H 0.71217 0.57472 0.34677 0.0
H320 H 0.74201 0.58470 0.29212 0.0
H321 H 0.65630 0.61936 0.34257 0.0
H322 H 0.69072 0.56709 0.38532 0.0
H323 H 0.02396 0.06750 0.11538 0.0
H324 H 0.07982 0.21222 0.09218 0.0
H325 H 0.10276 0.16808 0.09881 0.0
H326 H 0.06153 0.16423 0.09987 0.0
H327 H 0.08420 0.11857 0.10674 0.0
H328 H 0.04294 0.11542 0.10769 0.0
H329 H 0.06473 0.06996 0.11453 0.0
H330 H 0.02064 0.06857 0.06016 0.0
H331 H 0.07650 0.21330 0.03696 0.0
H332 H 0.09944 0.16916 0.04359 0.0
H333 H 0.05821 0.16530 0.04465 0.0
H334 H 0.08088 0.11964 0.05152 0.0
H335 H 0.03962 0.11649 0.05247 0.0
H336 H 0.06141 0.07103 0.05932 0.0
C337 C 0.03137 0.06153 0.08868 0.0
C338 C 0.08760 0.20722 0.06533 0.0
C339 C 0.09180 0.17459 0.07038 0.0
C340 C 0.06916 0.15880 0.07309 0.0
C341 C 0.07329 0.12518 0.07829 0.0
C342 C 0.05047 0.10974 0.08095 0.0
C343 C 0.05389 0.07671 0.08606 0.0
H344 H 0.93659 0.03323 0.05862 0.0
H345 H 0.81520 0.00010 0.05250 0.0
H346 H 0.84146 0.96018 0.05714 0.0
H347 H 0.85540 0.01131 0.05454 0.0
H348 H 0.88284 0.97056 0.05927 0.0
H349 H 0.89627 0.02191 0.05662 0.0
H350 H 0.92381 0.98233 0.06128 0.0
H351 H 0.93863 0.02982 0.11406 0.0
H352 H 0.81724 0.99745 0.10794 0.0
H353 H 0.84350 0.95677 0.11258 0.0
H354 H 0.85744 0.00789 0.10999 0.0
H355 H 0.88488 0.96714 0.11472 0.0
H356 H 0.89831 0.01849 0.11207 0.0
H357 H 0.92584 0.97891 0.11672 0.0
C358 C 0.93995 0.01833 0.08742 0.0
C359 C 0.81775 0.98576 0.08125 0.0
C360 C 0.84060 0.97181 0.08380 0.0
C361 C 0.85830 0.99628 0.08332 0.0
C362 C 0.88188 0.98216 0.08593 0.0
C363 C 0.89938 0.00694 0.08541 0.0
C364 C 0.92273 0.99388 0.08793 0.0
H365 H 0.06819 0.01150 0.13840 0.0
H366 H 0.19047 0.03850 0.15506 0.0
H367 H 0.17573 0.99281 0.13119 0.0
H368 H 0.15005 0.02933 0.14943 0.0
H369 H 0.13421 0.98305 0.12523 0.0
H370 H 0.10895 0.01999 0.14369 0.0
H371 H 0.09274 0.97465 0.11996 0.0
H372 H 0.06580 0.02870 0.08579 0.0
H373 H 0.18808 0.05570 0.10245 0.0
H374 H 0.17334 0.01000 0.07858 0.0
H375 H 0.14765 0.04652 0.09682 0.0
H376 H 0.13181 0.00010 0.07261 0.0
H377 H 0.10655 0.03719 0.09108 0.0
H378 H 0.09034 0.99184 0.06735 0.0
C379 C 0.06803 0.00803 0.10590 0.0
C380 C 0.19112 0.03522 0.12268 0.0
C381 C 0.17303 0.01339 0.11103 0.0
C382 C 0.15036 0.02595 0.11699 0.0
C383 C 0.13161 0.00365 0.10507 0.0
C384 C 0.10904 0.01657 0.11122 0.0
C385 C 0.09026 0.99526 0.09982 0.0
H386 H 0.95694 0.97218 0.06809 0.0
H387 H 0.88789 0.83737 0.07640 0.0
H388 H 0.92871 0.83352 0.07687 0.0
H389 H 0.91091 0.88182 0.07366 0.0
H390 H 0.95261 0.87903 0.07407 0.0
H391 H 0.93432 0.92701 0.07087 0.0
H392 H 0.97545 0.92510 0.07122 0.0
H393 H 0.95998 0.96865 0.12358 0.0
H394 H 0.89092 0.83384 0.13189 0.0
H395 H 0.93175 0.82999 0.13236 0.0
H396 H 0.91394 0.87829 0.12915 0.0
H397 H 0.95565 0.87549 0.12956 0.0
H398 H 0.93735 0.92348 0.12636 0.0
H399 H 0.97849 0.92157 0.12671 0.0
C400 C 0.96729 0.96345 0.09633 0.0
C401 C 0.89777 0.82775 0.10469 0.0
C402 C 0.92165 0.83925 0.10408 0.0
C403 C 0.92100 0.87257 0.10193 0.0
C404 C 0.94549 0.88464 0.10129 0.0
C405 C 0.94453 0.91800 0.09913 0.0
C406 C 0.96828 0.93057 0.09845 0.0
C407 C 0.45453 0.48919 0.66928 0.0
C408 C 0.43246 0.48271 0.68750 0.0
C409 C 0.41036 0.47623 0.70573 0.0
C410 C 0.38827 0.46975 0.72383 0.0
C411 C 0.36610 0.46326 0.74175 0.0
C412 C 0.34392 0.45677 0.75955 0.0
C413 C 0.52629 0.40941 0.65392 0.0
C414 C 0.52992 0.37719 0.66878 0.0
C415 C 0.53354 0.34494 0.68366 0.0
C416 C 0.53710 0.31272 0.69848 0.0
C417 C 0.54056 0.28043 0.71328 0.0
C418 C 0.54395 0.24816 0.72803 0.0
C419 C 0.55219 0.36328 0.46746 0.0
C420 C 0.55552 0.33585 0.44812 0.0
C421 C 0.55885 0.30841 0.42875 0.0
C422 C 0.56211 0.28096 0.40944 0.0
C423 C 0.56528 0.25344 0.39015 0.0
C424 C 0.56838 0.22592 0.37090 0.0
C425 C 0.47944 0.59708 0.53870 0.0
C426 C 0.47669 0.62961 0.52537 0.0
C427 C 0.47395 0.66217 0.51204 0.0
C428 C 0.47123 0.69470 0.49883 0.0
C429 C 0.46855 0.72730 0.48581 0.0
C430 C 0.46589 0.75988 0.47290 0.0
C431 C 0.46930 0.63791 0.74648 0.0
C432 C 0.46469 0.66555 0.76430 0.0
C433 C 0.46007 0.69322 0.78214 0.0
C434 C 0.45539 0.72083 0.79995 0.0
C435 C 0.45060 0.74843 0.81777 0.0
C436 C 0.44575 0.77600 0.83557 0.0
C437 C 0.54995 0.52388 0.51579 0.0
C438 C 0.57092 0.53358 0.49536 0.0
C439 C 0.59191 0.54329 0.47491 0.0
C440 C 0.61284 0.55299 0.45436 0.0
C441 C 0.63374 0.56271 0.43361 0.0
C442 C 0.65459 0.57242 0.41277 0.0
C443 C 0.45624 0.47280 0.50150 0.0
C444 C 0.43404 0.46923 0.47563 0.0
C445 C 0.41182 0.46565 0.44973 0.0
C446 C 0.38959 0.46212 0.42395 0.0
C447 C 0.36728 0.45863 0.39828 0.0
C448 C 0.34497 0.45517 0.37271 0.0
C449 C 0.54708 0.53972 0.67980 0.0
C450 C 0.56894 0.54675 0.70452 0.0
C451 C 0.59081 0.55378 0.72925 0.0
C452 C 0.61269 0.56073 0.75392 0.0
C453 C 0.63464 0.56758 0.77856 0.0
C454 C 0.65660 0.57435 0.80315 0.0
