data_{}
_symmetry_space_group_name_H-M    P1
_symmetry_Int_Tables_number       1
_symmetry_cell_setting            triclinic
loop_
_symmetry_equiv_pos_as_xyz
'x, y, z'
_cell_length_a     73.966
_cell_length_b     47.181
_cell_length_c     68.427
_cell_angle_alpha  100.411
_cell_angle_beta   90.843
_cell_angle_gamma  106.387
loop_
_atom_site_label
_atom_site_type_symbol
_atom_site_fract_x
_atom_site_fract_y
_atom_site_fract_z
_atom_type_partial_charge
C0 C 0.08012 0.03803 0.64543 0.0
C1 C 0.07800 0.02622 0.62204 0.0
C2 C 0.08703 0.05053 0.61150 0.0
C3 C 0.07855 0.07791 0.61881 0.0
C4 C 0.08060 0.09111 0.64006 0.0
C5 C 0.07189 0.06332 0.65120 0.0
H6 H 0.09362 0.04526 0.64969 0.0
H7 H 0.06472 0.01827 0.61765 0.0
H8 H 0.08378 0.01000 0.61882 0.0
H9 H 0.10070 0.05710 0.61492 0.0
H10 H 0.06516 0.07111 0.61475 0.0
H11 H 0.08433 0.09379 0.61169 0.0
H12 H 0.09421 0.09827 0.64385 0.0
H13 H 0.05834 0.05600 0.64809 0.0
H14 H 0.07407 0.07050 0.66548 0.0
C15 C 0.07960 0.05102 0.50661 0.0
C16 C 0.07758 0.06092 0.52971 0.0
C17 C 0.08665 0.04496 0.54154 0.0
C18 C 0.07814 0.00975 0.53302 0.0
C19 C 0.08010 0.99839 0.51206 0.0
C20 C 0.07135 0.01813 0.49967 0.0
H21 H 0.09309 0.05623 0.50428 0.0
H22 H 0.06431 0.05663 0.53221 0.0
H23 H 0.08337 0.08247 0.53376 0.0
H24 H 0.10031 0.05097 0.54007 0.0
H25 H 0.06476 0.00421 0.53518 0.0
H26 H 0.08395 0.99990 0.54096 0.0
H27 H 0.09370 0.00378 0.51020 0.0
H28 H 0.05780 0.01296 0.50086 0.0
H29 H 0.07347 0.01294 0.48570 0.0
H30 H 0.97128 0.54308 0.80370 0.0
C31 C 0.98529 0.54772 0.77698 0.0
H32 H 0.99875 0.55757 0.78538 0.0
O33 O 0.04515 0.52278 0.73720 0.0
C34 C 0.04703 0.49418 0.72925 0.0
C35 C 0.06219 0.45631 0.73449 0.0
H36 H 0.07103 0.44898 0.74404 0.0
C37 C 0.05862 0.48378 0.74084 0.0
H38 H 0.06500 0.49718 0.75505 0.0
C39 C 0.03384 0.56581 0.73911 0.0
C40 C 0.03440 0.53471 0.72898 0.0
H41 H 0.02514 0.52335 0.71584 0.0
O42 O 0.05597 0.57317 0.76869 0.0
C43 C 0.05424 0.43838 0.71615 0.0
O44 O 0.02794 0.61208 0.73352 0.0
C45 C 0.04246 0.44846 0.70434 0.0
H46 H 0.03590 0.43482 0.69017 0.0
C47 C 0.03890 0.47614 0.71070 0.0
H48 H 0.02996 0.48279 0.70093 0.0
O49 O 0.99990 0.54894 0.74420 0.0
C50 C 0.05378 0.58309 0.75028 0.0
H51 H 0.05535 0.60760 0.75401 0.0
H52 H 0.06489 0.58022 0.74000 0.0
C53 C 0.07134 0.56236 0.77304 0.0
C54 C 0.08934 0.57112 0.76549 0.0
H55 H 0.09244 0.58734 0.75578 0.0
C56 C 0.10402 0.56007 0.77140 0.0
H57 H 0.11778 0.56777 0.76575 0.0
C58 C 0.10127 0.54080 0.78534 0.0
C59 C 0.08341 0.53269 0.79303 0.0
H60 H 0.08077 0.51819 0.80388 0.0
C61 C 0.06877 0.54340 0.78698 0.0
H62 H 0.05519 0.53691 0.79324 0.0
C63 C 0.02964 0.58371 0.72336 0.0
H64 H 0.01627 0.57094 0.71430 0.0
H65 H 0.04138 0.58733 0.71326 0.0
C66 C 0.02806 0.63513 0.72296 0.0
C67 C 0.03192 0.66416 0.73424 0.0
H68 H 0.03477 0.66797 0.75022 0.0
C69 C 0.03242 0.68853 0.72525 0.0
H70 H 0.03547 0.71028 0.73449 0.0
C71 C 0.02929 0.68498 0.70465 0.0
C72 C 0.02456 0.65558 0.69317 0.0
H73 H 0.02127 0.65183 0.67729 0.0
C74 C 0.02403 0.63076 0.70221 0.0
H75 H 0.02024 0.60850 0.69308 0.0
C76 C 0.01806 0.56209 0.75414 0.0
H77 H 0.02063 0.54734 0.76420 0.0
H78 H 0.01888 0.58450 0.76329 0.0
C79 C 0.98374 0.54277 0.75598 0.0
C80 C 0.96560 0.53068 0.74624 0.0
H81 H 0.96398 0.52661 0.73017 0.0
C82 C 0.94943 0.52375 0.75701 0.0
H83 H 0.93568 0.51516 0.74905 0.0
C84 C 0.95112 0.52766 0.77787 0.0
C85 C 0.96929 0.53966 0.78764 0.0
H86 H 0.97080 0.44563 0.33241 0.0
C87 C 0.98481 0.45390 0.36119 0.0
H88 H 0.99827 0.45647 0.35477 0.0
O89 O 0.04468 0.53405 0.40977 0.0
C90 C 0.04657 0.56439 0.41799 0.0
C91 C 0.06176 0.61625 0.41498 0.0
H92 H 0.07060 0.63173 0.40673 0.0
C93 C 0.05817 0.58548 0.40811 0.0
H94 H 0.06455 0.57796 0.39483 0.0
C95 C 0.03335 0.48058 0.40619 0.0
C96 C 0.03392 0.51220 0.41640 0.0
H97 H 0.02466 0.51502 0.42818 0.0
O98 O 0.05549 0.49363 0.37985 0.0
C99 C 0.05381 0.62685 0.43215 0.0
O100 O 0.02743 0.42886 0.41090 0.0
C101 C 0.04202 0.60589 0.44223 0.0
H102 H 0.03546 0.61349 0.45544 0.0
C103 C 0.03845 0.57493 0.43535 0.0
H104 H 0.02950 0.56003 0.44380 0.0
O105 O 0.99990 0.46578 0.39605 0.0
C106 C 0.05329 0.48169 0.39795 0.0
H107 H 0.05485 0.45861 0.39444 0.0
H108 H 0.06440 0.49480 0.40986 0.0
C109 C 0.07087 0.51861 0.37777 0.0
C110 C 0.08886 0.52645 0.38796 0.0
H111 H 0.09195 0.51308 0.39813 0.0
C112 C 0.10355 0.55104 0.38421 0.0
H113 H 0.11732 0.55604 0.39188 0.0
C114 C 0.10081 0.56779 0.36986 0.0
C115 C 0.08296 0.55943 0.35955 0.0
H116 H 0.08033 0.57150 0.34832 0.0
C117 C 0.06831 0.53521 0.36345 0.0
H118 H 0.05473 0.52918 0.35519 0.0
C119 C 0.02914 0.45880 0.42131 0.0
H120 H 0.01577 0.45924 0.42842 0.0
H121 H 0.04087 0.46599 0.43314 0.0
C122 C 0.02754 0.40591 0.42148 0.0
C123 C 0.03139 0.38044 0.41076 0.0
H124 H 0.03424 0.37925 0.39520 0.0
C125 C 0.03188 0.35652 0.41983 0.0
H126 H 0.03492 0.33758 0.41103 0.0
C127 C 0.02874 0.35717 0.43996 0.0
C128 C 0.02403 0.38222 0.45075 0.0
H129 H 0.02073 0.38293 0.46614 0.0
C130 C 0.02350 0.40656 0.44163 0.0
H131 H 0.01973 0.42533 0.45021 0.0
C132 C 0.01758 0.46975 0.38884 0.0
H133 H 0.02016 0.48688 0.37916 0.0
H134 H 0.01838 0.44809 0.37981 0.0
C135 C 0.98325 0.45742 0.38195 0.0
C136 C 0.96512 0.45279 0.38904 0.0
H137 H 0.96349 0.45536 0.40486 0.0
C138 C 0.94895 0.44481 0.37589 0.0
H139 H 0.93520 0.44072 0.38183 0.0
C140 C 0.95064 0.44247 0.35528 0.0
C141 C 0.96881 0.44722 0.34817 0.0
C142 C 0.75047 0.33721 0.17294 0.0
C143 C 0.73946 0.31083 0.15650 0.0
C144 C 0.72781 0.31683 0.13971 0.0
C145 C 0.71667 0.29067 0.12319 0.0
C146 C 0.70500 0.29691 0.10648 0.0
C147 C 0.70449 0.32925 0.10636 0.0
C148 C 0.71567 0.35539 0.12283 0.0
C149 C 0.72731 0.34917 0.13951 0.0
C150 C 0.68567 0.30854 0.07350 0.0
C151 C 0.67731 0.32142 0.05768 0.0
C152 C 0.65698 0.32352 0.05875 0.0
C153 C 0.65000 0.34167 0.04532 0.0
C154 C 0.66244 0.35445 0.02926 0.0
C155 C 0.68213 0.34977 0.02701 0.0
C156 C 0.68958 0.33327 0.04127 0.0
C157 C 0.70986 0.33077 0.04013 0.0
C158 C 0.64427 0.30971 0.07433 0.0
C159 C 0.65540 0.37281 0.01598 0.0
C160 C 0.63071 0.34746 0.04804 0.0
C161 C 0.61685 0.38874 0.05939 0.0
C162 C 0.59787 0.36482 0.05231 0.0
C163 C 0.57948 0.37403 0.05267 0.0
C164 C 0.58012 0.40713 0.06011 0.0
C165 C 0.59910 0.43100 0.06734 0.0
C166 C 0.61749 0.42179 0.06698 0.0
C167 C 0.56172 0.41627 0.06025 0.0
C168 C 0.54280 0.39228 0.05291 0.0
C169 C 0.69485 0.36302 0.01134 0.0
C170 C 0.70217 0.34979 0.97664 0.0
C171 C 0.71679 0.38107 0.98025 0.0
C172 C 0.73196 0.38861 0.96533 0.0
C173 C 0.73249 0.36481 0.94687 0.0
C174 C 0.71782 0.33357 0.94325 0.0
C175 C 0.70264 0.32605 0.95815 0.0
C176 C 0.74773 0.37211 0.93200 0.0
C177 C 0.74822 0.34805 0.91370 0.0
O178 O 0.69330 0.33562 0.08997 0.0
O179 O 0.68790 0.34186 0.99171 0.0
O180 O 0.63489 0.37989 0.05842 0.0
H181 H 0.74997 0.36105 0.17261 0.0
H182 H 0.73993 0.28696 0.15678 0.0
H183 H 0.71704 0.26673 0.12333 0.0
H184 H 0.69677 0.27760 0.09422 0.0
H185 H 0.71532 0.37934 0.12265 0.0
H186 H 0.73557 0.36849 0.15173 0.0
H187 H 0.67431 0.29034 0.07894 0.0
H188 H 0.69757 0.29938 0.06732 0.0
H189 H 0.71779 0.34578 0.02984 0.0
H190 H 0.70947 0.30642 0.03410 0.0
H191 H 0.71735 0.33838 0.05568 0.0
H192 H 0.65343 0.30650 0.08682 0.0
H193 H 0.63437 0.28690 0.06686 0.0
H194 H 0.63555 0.32516 0.08073 0.0
H195 H 0.66689 0.38168 0.00584 0.0
H196 H 0.65194 0.39252 0.02585 0.0
H197 H 0.64215 0.35789 0.00656 0.0
H198 H 0.62295 0.34391 0.03287 0.0
H199 H 0.62188 0.33194 0.05754 0.0
H200 H 0.59744 0.34035 0.04673 0.0
H201 H 0.56541 0.35637 0.04739 0.0
H202 H 0.59955 0.45549 0.07291 0.0
H203 H 0.63158 0.43945 0.07225 0.0
H204 H 0.56209 0.44074 0.06575 0.0
H205 H 0.54247 0.36783 0.04742 0.0
H206 H 0.69398 0.38652 0.01048 0.0
H207 H 0.71006 0.36396 0.01529 0.0
H208 H 0.71645 0.39853 0.99402 0.0
H209 H 0.74284 0.41173 0.96797 0.0
H210 H 0.71825 0.31599 0.92958 0.0
H211 H 0.69184 0.30287 0.95558 0.0
H212 H 0.75863 0.39521 0.93455 0.0
H213 H 0.73729 0.32498 0.91121 0.0
C214 C 0.31288 0.71005 0.97249 0.0
C215 C 0.30886 0.68022 0.98009 0.0
C216 C 0.32146 0.67774 0.99744 0.0
C217 C 0.31765 0.64802 0.00517 0.0
C218 C 0.33038 0.64575 0.02250 0.0
C219 C 0.34687 0.67317 0.03202 0.0
C220 C 0.35063 0.70288 0.02433 0.0
C221 C 0.33793 0.70515 0.00703 0.0
C222 C 0.35193 0.64240 0.05678 0.0
C223 C 0.36508 0.64746 0.07542 0.0
C224 C 0.38398 0.63999 0.07351 0.0
C225 C 0.39862 0.65052 0.09145 0.0
C226 C 0.39350 0.66509 0.11182 0.0
C227 C 0.37385 0.66990 0.11409 0.0
C228 C 0.35963 0.66112 0.09585 0.0
C229 C 0.34058 0.66822 0.09771 0.0
C230 C 0.38881 0.62435 0.05330 0.0
C231 C 0.40831 0.67579 0.12966 0.0
C232 C 0.41850 0.64690 0.08907 0.0
C233 C 0.45152 0.67729 0.08899 0.0
C234 C 0.45604 0.64712 0.08756 0.0
C235 C 0.47673 0.64653 0.08856 0.0
C236 C 0.49286 0.67612 0.09099 0.0
C237 C 0.48833 0.70629 0.09225 0.0
C238 C 0.46763 0.70687 0.09126 0.0
C239 C 0.51352 0.67545 0.09217 0.0
C240 C 0.51794 0.64520 0.09099 0.0
C241 C 0.36873 0.68506 0.13423 0.0
C242 C 0.35452 0.67255 0.16488 0.0
C243 C 0.35735 0.70655 0.17153 0.0
C244 C 0.34728 0.71805 0.18945 0.0
C245 C 0.33435 0.69550 0.20062 0.0
C246 C 0.33158 0.66151 0.19397 0.0
C247 C 0.34167 0.65002 0.17608 0.0
C248 C 0.32410 0.70683 0.21841 0.0
C249 C 0.31109 0.68406 0.22935 0.0
O250 O 0.35926 0.67128 0.04912 0.0
O251 O 0.36362 0.66115 0.14676 0.0
O252 O 0.43129 0.67795 0.08868 0.0
H253 H 0.32514 0.73016 0.97973 0.0
H254 H 0.29661 0.66005 0.97289 0.0
H255 H 0.30545 0.62774 0.99807 0.0
H256 H 0.32759 0.62381 0.02828 0.0
H257 H 0.36281 0.72318 0.03147 0.0
H258 H 0.34071 0.72711 0.00130 0.0
H259 H 0.35304 0.62229 0.04532 0.0
H260 H 0.33674 0.63926 0.06103 0.0
H261 H 0.34072 0.68337 0.11274 0.0
H262 H 0.32864 0.64641 0.09648 0.0
H263 H 0.33834 0.68024 0.08525 0.0
H264 H 0.37963 0.62750 0.04080 0.0
H265 H 0.38591 0.59927 0.05324 0.0
H266 H 0.40435 0.63438 0.05091 0.0
H267 H 0.40228 0.68735 0.14301 0.0
H268 H 0.42147 0.69235 0.12549 0.0
H269 H 0.41219 0.65565 0.13357 0.0
H270 H 0.42300 0.63827 0.10233 0.0
H271 H 0.41887 0.63079 0.07460 0.0
H272 H 0.44407 0.62525 0.08585 0.0
H273 H 0.48011 0.62421 0.08755 0.0
H274 H 0.50028 0.72818 0.09397 0.0
H275 H 0.46423 0.72919 0.09227 0.0
H276 H 0.52553 0.69728 0.09395 0.0
H277 H 0.50590 0.62341 0.08920 0.0
H278 H 0.38111 0.70464 0.14185 0.0
H279 H 0.35599 0.69342 0.13174 0.0
H280 H 0.36680 0.72314 0.16312 0.0
H281 H 0.34931 0.74322 0.19440 0.0
H282 H 0.32200 0.64486 0.20227 0.0
H283 H 0.33954 0.62485 0.17105 0.0
H284 H 0.32610 0.73198 0.22345 0.0
H285 H 0.30912 0.65894 0.22426 0.0
C286 C 0.92834 0.50591 0.79500 0.0
C287 C 0.91132 0.49055 0.80587 0.0
C288 C 0.89429 0.47518 0.81673 0.0
C289 C 0.89397 0.44645 0.82457 0.0
C290 C 0.87694 0.43110 0.83544 0.0
C291 C 0.86022 0.44448 0.83846 0.0
C292 C 0.86054 0.47321 0.83062 0.0
C293 C 0.87757 0.48855 0.81975 0.0
C294 C 0.84320 0.42914 0.84934 0.0
C295 C 0.82649 0.44252 0.85238 0.0
C296 C 0.80947 0.42716 0.86325 0.0
C297 C 0.80916 0.39842 0.87108 0.0
C298 C 0.82587 0.38503 0.86804 0.0
C299 C 0.84289 0.40039 0.85716 0.0
C300 C 0.79214 0.38305 0.88196 0.0
C301 C 0.77513 0.36765 0.89283 0.0
H302 H 0.90635 0.43654 0.82233 0.0
H303 H 0.87671 0.40984 0.84125 0.0
H304 H 0.84816 0.48312 0.83286 0.0
H305 H 0.87780 0.50981 0.81394 0.0
H306 H 0.82671 0.46379 0.84658 0.0
H307 H 0.79709 0.43707 0.86552 0.0
H308 H 0.82565 0.36376 0.87384 0.0
H309 H 0.85527 0.39048 0.85491 0.0
C310 C 0.92908 0.43463 0.33436 0.0
C311 C 0.91181 0.42434 0.31921 0.0
C312 C 0.89455 0.41403 0.30405 0.0
C313 C 0.87482 0.39906 0.31049 0.0
C314 C 0.85757 0.38877 0.29532 0.0
C315 C 0.86003 0.39345 0.27371 0.0
C316 C 0.87975 0.40843 0.26727 0.0
C317 C 0.89701 0.41871 0.28244 0.0
C318 C 0.84276 0.38318 0.25856 0.0
C319 C 0.84522 0.38788 0.23695 0.0
C320 C 0.82795 0.37760 0.22180 0.0
C321 C 0.80823 0.36260 0.22825 0.0
C322 C 0.80578 0.35790 0.24986 0.0
C323 C 0.82304 0.36819 0.26501 0.0
C324 C 0.79096 0.35232 0.21310 0.0
C325 C 0.77367 0.34200 0.19797 0.0
H326 H 0.87300 0.39558 0.32648 0.0
H327 H 0.84296 0.37769 0.30009 0.0
H328 H 0.88158 0.41190 0.25128 0.0
H329 H 0.91161 0.42978 0.27767 0.0
H330 H 0.85981 0.39897 0.23217 0.0
H331 H 0.82976 0.38109 0.20581 0.0
H332 H 0.79118 0.34681 0.25463 0.0
H333 H 0.82123 0.36471 0.28100 0.0
C334 C 0.13150 0.56305 0.80542 0.0
C335 C 0.14855 0.57776 0.82072 0.0
C336 C 0.16559 0.59246 0.83602 0.0
C337 C 0.18583 0.59759 0.82922 0.0
C338 C 0.20286 0.61230 0.84453 0.0
C339 C 0.19967 0.62187 0.86663 0.0
C340 C 0.17943 0.61674 0.87343 0.0
C341 C 0.16240 0.60203 0.85812 0.0
C342 C 0.21671 0.63660 0.88193 0.0
C343 C 0.21352 0.64620 0.90403 0.0
C344 C 0.23056 0.66092 0.91932 0.0
C345 C 0.25079 0.66603 0.91252 0.0
C346 C 0.25399 0.65642 0.89041 0.0
C347 C 0.23694 0.64171 0.87512 0.0
C348 C 0.26784 0.68075 0.92781 0.0
C349 C 0.28491 0.69545 0.94308 0.0
H350 H 0.18819 0.59049 0.81286 0.0
H351 H 0.21784 0.61610 0.83950 0.0
H352 H 0.17706 0.62383 0.88979 0.0
H353 H 0.14742 0.59821 0.86315 0.0
H354 H 0.19854 0.64241 0.90907 0.0
H355 H 0.22821 0.66805 0.93568 0.0
H356 H 0.26896 0.66021 0.88537 0.0
H357 H 0.23929 0.63459 0.85876 0.0
C358 C 0.12902 0.58293 0.35729 0.0
C359 C 0.14654 0.59385 0.34573 0.0
C360 C 0.16406 0.60477 0.33416 0.0
C361 C 0.16337 0.62383 0.31826 0.0
C362 C 0.18090 0.63474 0.30671 0.0
C363 C 0.19911 0.62660 0.31105 0.0
C364 C 0.19979 0.60754 0.32694 0.0
C365 C 0.18227 0.59662 0.33849 0.0
C366 C 0.21663 0.63754 0.29950 0.0
C367 C 0.23485 0.62942 0.30384 0.0
C368 C 0.25237 0.64036 0.29228 0.0
C369 C 0.25167 0.65940 0.27637 0.0
C370 C 0.23345 0.66752 0.27203 0.0
C371 C 0.21593 0.65658 0.28359 0.0
C372 C 0.26919 0.67034 0.26481 0.0
C373 C 0.28669 0.68129 0.25323 0.0
H374 H 0.14989 0.62985 0.31505 0.0
H375 H 0.18039 0.64885 0.29495 0.0
H376 H 0.21327 0.60151 0.33015 0.0
H377 H 0.18277 0.58250 0.35025 0.0
H378 H 0.23537 0.61532 0.31560 0.0
H379 H 0.26586 0.63437 0.29550 0.0
H380 H 0.23294 0.68162 0.26026 0.0
H381 H 0.20244 0.66258 0.28038 0.0
H382 H 0.55602 0.47531 0.05258 0.0
H383 H 0.51144 0.47214 0.08748 0.0
C384 C 0.53874 0.53028 0.06656 0.0
C385 C 0.53284 0.57554 0.08285 0.0
C386 C 0.52014 0.56275 0.09486 0.0
C387 C 0.54141 0.55908 0.06811 0.0
C388 C 0.51519 0.52941 0.09245 0.0
H389 H 0.54404 0.51927 0.03728 0.0
H390 H 0.56288 0.52412 0.05651 0.0
H391 H 0.51374 0.57734 0.10617 0.0
H392 H 0.55085 0.57116 0.05733 0.0
H393 H 0.50454 0.51723 0.10224 0.0
C394 C 0.52355 0.51302 0.07825 0.0
C395 C 0.52946 0.46776 0.06196 0.0
C396 C 0.54216 0.48056 0.04995 0.0
C397 C 0.52089 0.48422 0.07670 0.0
C398 C 0.54710 0.51389 0.05236 0.0
H399 H 0.53655 0.47023 0.03386 0.0
C400 C 0.08226 0.15864 0.63241 0.0
C401 C 0.09706 0.15636 0.62040 0.0
C402 C 0.10333 0.13093 0.61888 0.0
C403 C 0.09490 0.10820 0.62906 0.0
C404 C 0.08024 0.11078 0.64083 0.0
C405 C 0.07412 0.13644 0.64249 0.0
C406 C 0.07466 0.18558 0.63406 0.0
H407 H 0.10270 0.17167 0.61344 0.0
H408 H 0.11332 0.12909 0.61090 0.0
H409 H 0.09923 0.09108 0.62795 0.0
H410 H 0.06426 0.13842 0.65066 0.0
H411 H 0.07932 0.19672 0.62349 0.0
H412 H 0.06080 0.17871 0.63238 0.0
C413 C 0.05916 0.36842 0.72171 0.0
C414 C 0.06671 0.39461 0.71438 0.0
C415 C 0.06963 0.34488 0.71929 0.0
C416 C 0.07479 0.30082 0.69648 0.0
C417 C 0.06867 0.27780 0.67781 0.0
C418 C 0.04256 0.36460 0.73136 0.0
C419 C 0.03365 0.38720 0.73371 0.0
C420 C 0.05759 0.41696 0.71646 0.0
H421 H 0.03737 0.34692 0.73629 0.0
H422 H 0.02263 0.38501 0.74066 0.0
H423 H 0.03445 0.42775 0.72710 0.0
H424 H 0.07804 0.39724 0.70797 0.0
H425 H 0.06678 0.33342 0.73002 0.0
C426 C 0.07273 0.23193 0.65629 0.0
C427 C 0.07878 0.25340 0.67604 0.0
H428 H 0.08827 0.31111 0.69626 0.0
H429 H 0.05498 0.26836 0.67749 0.0
H430 H 0.07113 0.28775 0.66632 0.0
H431 H 0.07327 0.29053 0.70783 0.0
H432 H 0.08327 0.35491 0.72042 0.0
H433 H 0.05891 0.22418 0.65497 0.0
H434 H 0.07671 0.24288 0.64550 0.0
N435 N 0.08091 0.20590 0.65415 0.0
N436 N 0.06438 0.32376 0.69963 0.0
C437 C 0.04086 0.41300 0.72592 0.0
C438 C 0.07142 0.98407 0.67939 0.0
C439 C 0.08464 0.00650 0.69271 0.0
C440 C 0.09443 0.03260 0.68631 0.0
C441 C 0.09100 0.03628 0.66704 0.0
C442 C 0.07784 0.01391 0.65408 0.0
C443 C 0.06819 0.98763 0.66048 0.0
C444 C 0.06008 0.95563 0.68592 0.0
H445 H 0.08689 0.00406 0.70576 0.0
H446 H 0.10342 0.04788 0.69507 0.0
H447 H 0.09769 0.05401 0.66283 0.0
H448 H 0.05935 0.97221 0.65163 0.0
H449 H 0.06128 0.95840 0.70047 0.0
H450 H 0.04666 0.95138 0.68176 0.0
C451 C 0.03368 0.73384 0.67008 0.0
C452 C 0.03624 0.72462 0.68784 0.0
C453 C 0.04732 0.76245 0.66613 0.0
C454 C 0.05482 0.81827 0.67178 0.0
C455 C 0.04854 0.84554 0.67875 0.0
C456 C 0.01909 0.71658 0.65625 0.0
C457 C 0.00716 0.68999 0.66029 0.0
C458 C 0.02408 0.69827 0.69197 0.0
H459 H 0.01728 0.72275 0.64426 0.0
H460 H 0.99753 0.67786 0.65075 0.0
H461 H 0.00010 0.66360 0.68105 0.0
H462 H 0.04622 0.73625 0.69713 0.0
H463 H 0.04803 0.76122 0.65173 0.0
C464 C 0.05542 0.90096 0.68235 0.0
C465 C 0.06205 0.87405 0.67384 0.0
H466 H 0.06701 0.82094 0.67880 0.0
H467 H 0.03592 0.84245 0.67249 0.0
H468 H 0.04751 0.84822 0.69320 0.0
H469 H 0.05683 0.81671 0.65756 0.0
H470 H 0.05995 0.76444 0.67187 0.0
H471 H 0.04224 0.89718 0.67756 0.0
H472 H 0.05592 0.90353 0.69688 0.0
N473 N 0.06714 0.92952 0.67672 0.0
N474 N 0.04146 0.78964 0.67487 0.0
C475 C 0.00934 0.68115 0.67824 0.0
C476 C 0.08829 0.93530 0.51692 0.0
C477 C 0.10558 0.95292 0.52670 0.0
C478 C 0.11060 0.98391 0.52781 0.0
C479 C 0.09856 0.99703 0.51942 0.0
C480 C 0.08149 0.97928 0.50987 0.0
C481 C 0.07657 0.94818 0.50860 0.0
C482 C 0.08204 0.90155 0.51584 0.0
H483 H 0.11368 0.94406 0.53244 0.0
H484 H 0.12222 0.99609 0.53428 0.0
H485 H 0.10207 0.01801 0.52024 0.0
H486 H 0.06504 0.93598 0.50191 0.0
H487 H 0.08997 0.89620 0.52532 0.0
H488 H 0.06891 0.89519 0.51947 0.0
C489 C 0.05309 0.69899 0.42898 0.0
C490 C 0.06371 0.68138 0.43463 0.0
C491 C 0.06248 0.73226 0.43037 0.0
C492 C 0.07127 0.78260 0.45275 0.0
C493 C 0.06930 0.80117 0.47223 0.0
C494 C 0.03441 0.68587 0.42187 0.0
C495 C 0.02648 0.65502 0.42036 0.0
C496 C 0.05564 0.65060 0.43341 0.0
H497 H 0.02717 0.69768 0.41808 0.0
H498 H 0.01396 0.64591 0.41510 0.0
H499 H 0.03123 0.61684 0.42595 0.0
H500 H 0.07641 0.69029 0.43932 0.0
H501 H 0.05621 0.73962 0.42049 0.0
C502 C 0.07660 0.85210 0.49354 0.0
C503 C 0.07812 0.83487 0.47305 0.0
H504 H 0.08475 0.78545 0.45097 0.0
H505 H 0.05583 0.79736 0.47456 0.0
H506 H 0.07534 0.79499 0.48293 0.0
H507 H 0.06617 0.79004 0.44207 0.0
H508 H 0.07572 0.73538 0.42724 0.0
H509 H 0.06337 0.84661 0.49683 0.0
H510 H 0.08394 0.84632 0.50334 0.0
N511 N 0.08359 0.88558 0.49501 0.0
N512 N 0.06171 0.74991 0.45066 0.0
C513 C 0.03688 0.63750 0.42651 0.0
C514 C 0.06515 0.12572 0.52289 0.0
C515 C 0.05577 0.11541 0.53893 0.0
C516 C 0.05472 0.08649 0.54165 0.0
C517 C 0.06295 0.06832 0.52866 0.0
C518 C 0.07222 0.07891 0.51291 0.0
C519 C 0.07309 0.10780 0.51011 0.0
C520 C 0.06707 0.15737 0.51971 0.0
H521 H 0.05028 0.12775 0.54776 0.0
H522 H 0.04840 0.07918 0.55233 0.0
H523 H 0.06217 0.04879 0.53061 0.0
H524 H 0.07922 0.11497 0.49927 0.0
H525 H 0.06387 0.16928 0.53171 0.0
H526 H 0.08020 0.16710 0.51720 0.0
C527 C 0.03209 0.28439 0.43318 0.0
C528 C 0.02340 0.30481 0.44318 0.0
C529 C 0.02740 0.25324 0.43804 0.0
C530 C 0.03502 0.22218 0.46095 0.0
C531 C 0.04799 0.21977 0.47704 0.0
C532 C 0.04445 0.29258 0.41881 0.0
C533 C 0.04798 0.32126 0.41445 0.0
C534 C 0.02721 0.33365 0.43902 0.0
H535 H 0.05039 0.27890 0.41205 0.0
H536 H 0.05601 0.32666 0.40438 0.0
H537 H 0.04264 0.36155 0.42213 0.0
H538 H 0.01492 0.29914 0.45282 0.0
H539 H 0.02908 0.23899 0.42638 0.0
C540 C 0.05651 0.18742 0.49833 0.0
C541 C 0.04359 0.18780 0.48113 0.0
H542 H 0.02212 0.21719 0.46530 0.0
H543 H 0.06105 0.22609 0.47319 0.0
H544 H 0.04703 0.23354 0.48929 0.0
H545 H 0.03525 0.20716 0.44910 0.0
H546 H 0.01410 0.24696 0.44109 0.0
H547 H 0.06966 0.19607 0.49547 0.0
H548 H 0.05397 0.20003 0.51036 0.0
N549 N 0.05408 0.15628 0.50219 0.0
N550 N 0.03958 0.25225 0.45539 0.0
C551 C 0.03976 0.34198 0.42479 0.0
C552 C 0.08104 0.03101 0.56602 0.0
C553 C 0.08767 0.03761 0.58781 0.0
H554 H 0.08406 0.01359 0.55892 0.0
H555 H 0.06757 0.02646 0.56464 0.0
H556 H 0.10062 0.04208 0.58857 0.0
H557 H 0.08204 0.02188 0.59430 0.0
