data_{}
_symmetry_space_group_name_H-M    P1
_symmetry_Int_Tables_number       1
_symmetry_cell_setting            triclinic
loop_
_symmetry_equiv_pos_as_xyz
'x, y, z'
_cell_length_a     87.937
_cell_length_b     87.937
_cell_length_c     40.732
_cell_angle_alpha  90.120
_cell_angle_beta   90.120
_cell_angle_gamma  85.036
loop_
_atom_site_label
_atom_site_type_symbol
_atom_site_fract_x
_atom_site_fract_y
_atom_site_fract_z
_atom_type_partial_charge
N0 N 0.01367 0.51440 0.96557 0.0
Cd1 Cd 0.00010 0.50068 0.00534 0.0
N2 N 0.98363 0.49489 0.04731 0.0
H3 H 0.96537 0.49530 0.97900 0.0
H4 H 0.00650 0.47662 0.94702 0.0
H5 H 0.95345 0.48389 0.93245 0.0
H6 H 0.99537 0.46500 0.90292 0.0
H7 H 0.02141 0.52656 0.03197 0.0
H8 H 0.01596 0.48752 0.06954 0.0
H9 H 0.04142 0.52973 0.06976 0.0
H10 H 0.03586 0.48959 0.10583 0.0
H11 H 0.03569 0.50604 0.97938 0.0
H12 H 0.99458 0.52469 0.94707 0.0
H13 H 0.04762 0.51740 0.93301 0.0
H14 H 0.00572 0.53626 0.90313 0.0
H15 H 0.97963 0.47483 0.03164 0.0
H16 H 0.98506 0.51391 0.06944 0.0
H17 H 0.95960 0.47170 0.06921 0.0
H18 H 0.96515 0.51188 0.10551 0.0
C19 C 0.97242 0.48874 0.96099 0.0
C20 C 0.99532 0.47788 0.94412 0.0
C21 C 0.96493 0.48225 0.93536 0.0
C22 C 0.98872 0.47103 0.91771 0.0
C23 C 0.97315 0.47345 0.91259 0.0
C24 C 0.02466 0.51917 0.04826 0.0
C25 C 0.02159 0.49591 0.07010 0.0
C26 C 0.03627 0.52140 0.07008 0.0
C27 C 0.03308 0.49729 0.09235 0.0
C28 C 0.04107 0.51014 0.09215 0.0
C29 C 0.02865 0.51258 0.96133 0.0
C30 C 0.00575 0.52342 0.94427 0.0
C31 C 0.03614 0.51904 0.93581 0.0
C32 C 0.01237 0.53024 0.91797 0.0
C33 C 0.02793 0.52782 0.91300 0.0
C34 C 0.97638 0.48223 0.04793 0.0
C35 C 0.97944 0.50552 0.06990 0.0
C36 C 0.96476 0.48003 0.06961 0.0
C37 C 0.96793 0.50416 0.09203 0.0
C38 C 0.95995 0.49131 0.09169 0.0
N39 N 0.98739 0.48693 0.96538 0.0
N40 N 0.01740 0.50652 0.04751 0.0
N41 N 0.50014 0.02056 0.96554 0.0
Cd42 Cd 0.50044 0.00010 0.00534 0.0
N43 N 0.49284 0.98470 0.04731 0.0
H44 H 0.48012 0.97270 0.97896 0.0
H45 H 0.52076 0.98555 0.94713 0.0
H46 H 0.47970 0.95554 0.93244 0.0
H47 H 0.52103 0.96876 0.90305 0.0
H48 H 0.49721 0.03549 0.03190 0.0
H49 H 0.51985 0.00010 0.06961 0.0
H50 H 0.50871 0.05154 0.06971 0.0
H51 H 0.53202 0.01573 0.10593 0.0
H52 H 0.52079 0.02875 0.97942 0.0
H53 H 0.48018 0.01588 0.94696 0.0
H54 H 0.52125 0.04588 0.93302 0.0
H55 H 0.47996 0.03265 0.90299 0.0
H56 H 0.50365 0.96599 0.03171 0.0
H57 H 0.48097 0.00010 0.06936 0.0
H58 H 0.49212 0.94996 0.06926 0.0
H59 H 0.46877 0.98579 0.10541 0.0
C60 C 0.48935 0.97222 0.96099 0.0
C61 C 0.51229 0.97902 0.94420 0.0
C62 C 0.48863 0.96199 0.93537 0.0
C63 C 0.51241 0.96909 0.91781 0.0
C64 C 0.50017 0.96051 0.91265 0.0
C65 C 0.50441 0.03179 0.04823 0.0
C66 C 0.51802 0.01114 0.07015 0.0
C67 C 0.51082 0.04141 0.07005 0.0
C68 C 0.52492 0.02001 0.09242 0.0
C69 C 0.52169 0.03566 0.09218 0.0
C70 C 0.51158 0.02922 0.96133 0.0
C71 C 0.48865 0.02241 0.94419 0.0
C72 C 0.51232 0.03944 0.93579 0.0
C73 C 0.48856 0.03233 0.91787 0.0
C74 C 0.50080 0.04091 0.91293 0.0
C75 C 0.49644 0.96970 0.04796 0.0
C76 C 0.48281 0.99036 0.06985 0.0
C77 C 0.49001 0.96009 0.06964 0.0
C78 C 0.47588 0.98150 0.09196 0.0
C79 C 0.47912 0.96586 0.09166 0.0
N80 N 0.50078 0.98089 0.96541 0.0
N81 N 0.50801 0.01678 0.04751 0.0
C82 C 0.49457 0.49478 0.50228 0.0
C83 C 0.50645 0.50665 0.50223 0.0
C84 C 0.50104 0.52377 0.50221 0.0
C85 C 0.52357 0.50124 0.50221 0.0
C86 C 0.49998 0.47766 0.50230 0.0
C87 C 0.47745 0.50019 0.50230 0.0
C88 C 0.49765 0.53223 0.46968 0.0
C89 C 0.49352 0.54947 0.46966 0.0
C90 C 0.49022 0.55802 0.50216 0.0
C91 C 0.49361 0.54956 0.53467 0.0
C92 C 0.49774 0.53232 0.53470 0.0
C93 C 0.53203 0.49786 0.46969 0.0
C94 C 0.54927 0.49372 0.46966 0.0
C95 C 0.55782 0.49042 0.50216 0.0
C96 C 0.54935 0.49381 0.53468 0.0
C97 C 0.53211 0.49794 0.53471 0.0
C98 C 0.50337 0.46920 0.53483 0.0
C99 C 0.50750 0.45196 0.53485 0.0
C100 C 0.51080 0.44341 0.50235 0.0
C101 C 0.50742 0.45187 0.46983 0.0
C102 C 0.50328 0.46911 0.46981 0.0
C103 C 0.46899 0.50357 0.53482 0.0
C104 C 0.45175 0.50771 0.53485 0.0
C105 C 0.44321 0.51101 0.50235 0.0
C106 C 0.45167 0.50762 0.46983 0.0
C107 C 0.46891 0.50349 0.46980 0.0
H108 H 0.49823 0.52563 0.44555 0.0
H109 H 0.49288 0.55602 0.44550 0.0
H110 H 0.49304 0.55614 0.55884 0.0
H111 H 0.49838 0.52577 0.55887 0.0
H112 H 0.52542 0.49843 0.44555 0.0
H113 H 0.55582 0.49308 0.44550 0.0
H114 H 0.52557 0.49858 0.55887 0.0
H115 H 0.50279 0.47580 0.55896 0.0
H116 H 0.50814 0.44541 0.55901 0.0
H117 H 0.50799 0.44529 0.44567 0.0
H118 H 0.50264 0.47566 0.44564 0.0
H119 H 0.47560 0.50300 0.55896 0.0
H120 H 0.44521 0.50835 0.55901 0.0
H121 H 0.44508 0.50819 0.44566 0.0
H122 H 0.47545 0.50285 0.44564 0.0
H123 H 0.55594 0.49324 0.55885 0.0
C124 C 0.10864 0.56974 0.28295 0.0
C125 C 0.11303 0.55534 0.30353 0.0
C126 C 0.12371 0.55627 0.33332 0.0
C127 C 0.12824 0.54195 0.35408 0.0
C128 C 0.13897 0.54299 0.38380 0.0
C129 C 0.14516 0.55833 0.39261 0.0
C130 C 0.14059 0.57263 0.37193 0.0
C131 C 0.12988 0.57160 0.34226 0.0
C132 C 0.15693 0.54516 0.44226 0.0
C133 C 0.16607 0.54978 0.47224 0.0
C134 C 0.18360 0.54844 0.47104 0.0
C135 C 0.19254 0.55581 0.49843 0.0
C136 C 0.18413 0.56281 0.52876 0.0
C137 C 0.16667 0.56280 0.53126 0.0
C138 C 0.15763 0.55630 0.50292 0.0
C139 C 0.14007 0.55744 0.50413 0.0
C140 C 0.19205 0.54091 0.44125 0.0
C141 C 0.19316 0.57027 0.55593 0.0
C142 C 0.20988 0.55641 0.49543 0.0
C143 C 0.22905 0.57482 0.48740 0.0
C144 C 0.24071 0.56098 0.49294 0.0
C145 C 0.25786 0.56323 0.49482 0.0
C146 C 0.26330 0.57931 0.49116 0.0
C147 C 0.25164 0.59314 0.48535 0.0
C148 C 0.23449 0.59089 0.48348 0.0
C149 C 0.28045 0.58152 0.49338 0.0
C150 C 0.29203 0.56765 0.49934 0.0
C151 C 0.15811 0.57006 0.56106 0.0
C152 C 0.14914 0.56344 0.61575 0.0
C153 C 0.14243 0.58016 0.61799 0.0
C154 C 0.13079 0.58502 0.64501 0.0
C155 C 0.12588 0.57312 0.66964 0.0
C156 C 0.13264 0.55642 0.66741 0.0
C157 C 0.14428 0.55157 0.64043 0.0
C158 C 0.11414 0.57788 0.69650 0.0
C159 C 0.10921 0.56586 0.72081 0.0
O160 O 0.15552 0.55950 0.42183 0.0
O161 O 0.15995 0.55851 0.58836 0.0
O162 O 0.21225 0.57268 0.48665 0.0
H163 H 0.11331 0.58102 0.28986 0.0
H164 H 0.10839 0.54404 0.29670 0.0
H165 H 0.12366 0.53061 0.34747 0.0
H166 H 0.14233 0.53243 0.39924 0.0
H167 H 0.14515 0.58399 0.37861 0.0
H168 H 0.12651 0.58217 0.32689 0.0
H169 H 0.16334 0.53535 0.42830 0.0
H170 H 0.14519 0.54198 0.45016 0.0
H171 H 0.13593 0.56516 0.52538 0.0
H172 H 0.13599 0.54559 0.50777 0.0
H173 H 0.13530 0.56246 0.48005 0.0
H174 H 0.18391 0.54087 0.41942 0.0
H175 H 0.19625 0.52864 0.44772 0.0
H176 H 0.20224 0.54746 0.43464 0.0
H177 H 0.18493 0.57549 0.57529 0.0
H178 H 0.19972 0.57959 0.54463 0.0
H179 H 0.20156 0.56131 0.56779 0.0
H180 H 0.21559 0.55330 0.51995 0.0
H181 H 0.21467 0.54831 0.47537 0.0
H182 H 0.23664 0.54909 0.49578 0.0
H183 H 0.26651 0.55300 0.49899 0.0
H184 H 0.25568 0.60504 0.48252 0.0
H185 H 0.22582 0.60112 0.47932 0.0
H186 H 0.28455 0.59340 0.49067 0.0
H187 H 0.28789 0.55578 0.50204 0.0
H188 H 0.16301 0.58112 0.56875 0.0
H189 H 0.14549 0.57242 0.55466 0.0
H190 H 0.14599 0.58890 0.59954 0.0
H191 H 0.12577 0.59739 0.64672 0.0
H192 H 0.12897 0.54764 0.68567 0.0
H193 H 0.14923 0.53919 0.63859 0.0
H194 H 0.10909 0.59023 0.69837 0.0
H195 H 0.11428 0.55352 0.71885 0.0
C196 C 0.56833 0.10895 0.28295 0.0
C197 C 0.58273 0.11084 0.30364 0.0
C198 C 0.58181 0.12168 0.33342 0.0
C199 C 0.59612 0.12373 0.35431 0.0
C200 C 0.59509 0.13465 0.38401 0.0
C201 C 0.57975 0.14349 0.39270 0.0
C202 C 0.56545 0.14140 0.37190 0.0
C203 C 0.56648 0.13051 0.34224 0.0
C204 C 0.59293 0.15298 0.44246 0.0
C205 C 0.58831 0.16292 0.47240 0.0
C206 C 0.58965 0.18022 0.47121 0.0
C207 C 0.58228 0.19044 0.49854 0.0
C208 C 0.57529 0.18324 0.52881 0.0
C209 C 0.57529 0.16577 0.53131 0.0
C210 C 0.58179 0.15561 0.50303 0.0
C211 C 0.58064 0.13824 0.50422 0.0
C212 C 0.59718 0.18736 0.44148 0.0
C213 C 0.56782 0.19356 0.55592 0.0
C214 C 0.58169 0.20787 0.49554 0.0
C215 C 0.56328 0.23024 0.48736 0.0
C216 C 0.57712 0.23950 0.49300 0.0
C217 C 0.57487 0.25703 0.49487 0.0
C218 C 0.55879 0.26527 0.49108 0.0
C219 C 0.54496 0.25600 0.48515 0.0
C220 C 0.54721 0.23846 0.48330 0.0
C221 C 0.55659 0.28279 0.49328 0.0
C222 C 0.57047 0.29197 0.49935 0.0
C223 C 0.56802 0.15847 0.56105 0.0
C224 C 0.57464 0.14836 0.61579 0.0
C225 C 0.55792 0.14454 0.61790 0.0
C226 C 0.55306 0.13374 0.64488 0.0
C227 C 0.56495 0.12677 0.66961 0.0
C228 C 0.58166 0.13064 0.66751 0.0
C229 C 0.58651 0.14144 0.64058 0.0
C230 C 0.56020 0.11586 0.69643 0.0
C231 C 0.57222 0.10885 0.72083 0.0
O232 O 0.57859 0.15405 0.42191 0.0
O233 O 0.57957 0.15831 0.58845 0.0
O234 O 0.56541 0.21307 0.48662 0.0
H235 H 0.55706 0.11557 0.28976 0.0
H236 H 0.59403 0.10424 0.29691 0.0
H237 H 0.60747 0.11719 0.34779 0.0
H238 H 0.60565 0.13617 0.39954 0.0
H239 H 0.55409 0.14792 0.37849 0.0
H240 H 0.55591 0.12897 0.32679 0.0
H241 H 0.60274 0.15769 0.42858 0.0
H242 H 0.59611 0.14068 0.45039 0.0
H243 H 0.57292 0.13544 0.52541 0.0
H244 H 0.59249 0.13212 0.50796 0.0
H245 H 0.57562 0.13435 0.48011 0.0
H246 H 0.59722 0.17922 0.41965 0.0
H247 H 0.60945 0.18943 0.44806 0.0
H248 H 0.59063 0.19869 0.43482 0.0
H249 H 0.56260 0.18623 0.57524 0.0
H250 H 0.55851 0.20173 0.54454 0.0
H251 H 0.57679 0.20041 0.56785 0.0
H252 H 0.58480 0.21305 0.52008 0.0
H253 H 0.58979 0.21127 0.47554 0.0
H254 H 0.58901 0.23337 0.49595 0.0
H255 H 0.58511 0.26392 0.49912 0.0
H256 H 0.53307 0.26211 0.48223 0.0
H257 H 0.53698 0.23156 0.47906 0.0
H258 H 0.54471 0.28896 0.49047 0.0
H259 H 0.58233 0.28578 0.50215 0.0
H260 H 0.55697 0.16528 0.56865 0.0
H261 H 0.56567 0.14626 0.55463 0.0
H262 H 0.54918 0.14962 0.59938 0.0
H263 H 0.54069 0.13086 0.64649 0.0
H264 H 0.59044 0.12545 0.68585 0.0
H265 H 0.59889 0.14424 0.63884 0.0
H266 H 0.54784 0.11295 0.69819 0.0
H267 H 0.58456 0.11178 0.71898 0.0
C268 C 0.89242 0.43286 0.71755 0.0
C269 C 0.89052 0.41846 0.69687 0.0
C270 C 0.87965 0.41938 0.66712 0.0
C271 C 0.87758 0.40507 0.64625 0.0
C272 C 0.86665 0.40611 0.61658 0.0
C273 C 0.85780 0.42144 0.60791 0.0
C274 C 0.85991 0.43575 0.62870 0.0
C275 C 0.87082 0.43471 0.65833 0.0
C276 C 0.84828 0.40827 0.55819 0.0
C277 C 0.83832 0.41289 0.52828 0.0
C278 C 0.82102 0.41155 0.52952 0.0
C279 C 0.81078 0.41893 0.50222 0.0
C280 C 0.81796 0.42592 0.47193 0.0
C281 C 0.83543 0.42591 0.46937 0.0
C282 C 0.84561 0.41941 0.49762 0.0
C283 C 0.86297 0.42055 0.49637 0.0
C284 C 0.81389 0.40402 0.55927 0.0
C285 C 0.80762 0.43339 0.44485 0.0
C286 C 0.79335 0.41952 0.50528 0.0
C287 C 0.77099 0.43794 0.51353 0.0
C288 C 0.76172 0.42410 0.50792 0.0
C289 C 0.74419 0.42635 0.50611 0.0
C290 C 0.73596 0.44243 0.50992 0.0
C291 C 0.74524 0.45626 0.51581 0.0
C292 C 0.76277 0.45401 0.51761 0.0
C293 C 0.71843 0.44464 0.50777 0.0
C294 C 0.70925 0.43076 0.50173 0.0
C295 C 0.84271 0.43318 0.43960 0.0
C296 C 0.85278 0.42656 0.38483 0.0
C297 C 0.85660 0.44328 0.38271 0.0
C298 C 0.86738 0.44813 0.35569 0.0
C299 C 0.87434 0.43624 0.33094 0.0
C300 C 0.87047 0.41953 0.33306 0.0
C301 C 0.85968 0.41468 0.36003 0.0
C302 C 0.88523 0.44099 0.30409 0.0
C303 C 0.89222 0.42898 0.27966 0.0
O304 O 0.84722 0.42261 0.57873 0.0
O305 O 0.84285 0.42163 0.41221 0.0
O306 O 0.78816 0.43580 0.51421 0.0
H307 H 0.88579 0.44413 0.71076 0.0
H308 H 0.89712 0.40716 0.70358 0.0
H309 H 0.88413 0.39372 0.65275 0.0
H310 H 0.86511 0.39554 0.60105 0.0
H311 H 0.85338 0.44710 0.62213 0.0
H312 H 0.87237 0.44529 0.67377 0.0
H313 H 0.84358 0.39846 0.57209 0.0
H314 H 0.86057 0.40509 0.55022 0.0
H315 H 0.86576 0.42828 0.47517 0.0
H316 H 0.86909 0.40871 0.49262 0.0
H317 H 0.86688 0.42557 0.52047 0.0
H318 H 0.82205 0.40399 0.58108 0.0
H319 H 0.81181 0.39176 0.55271 0.0
H320 H 0.80258 0.41058 0.56597 0.0
H321 H 0.81494 0.43861 0.42551 0.0
H322 H 0.79946 0.44270 0.45625 0.0
H323 H 0.80076 0.42442 0.43294 0.0
H324 H 0.78815 0.41641 0.48076 0.0
H325 H 0.78997 0.41142 0.52529 0.0
H326 H 0.76785 0.41221 0.50496 0.0
H327 H 0.73730 0.41612 0.50188 0.0
H328 H 0.73913 0.46815 0.51875 0.0
H329 H 0.76968 0.46424 0.52183 0.0
H330 H 0.71227 0.45652 0.51060 0.0
H331 H 0.71544 0.41890 0.49892 0.0
H332 H 0.83589 0.44423 0.43202 0.0
H333 H 0.85492 0.43553 0.44599 0.0
H334 H 0.85154 0.45202 0.40125 0.0
H335 H 0.87026 0.46050 0.35408 0.0
H336 H 0.87564 0.41075 0.31471 0.0
H337 H 0.85688 0.40230 0.36178 0.0
H338 H 0.88814 0.45335 0.30231 0.0
H339 H 0.88929 0.41663 0.28153 0.0
C340 C 0.43146 0.89273 0.71755 0.0
C341 C 0.44586 0.88833 0.69698 0.0
C342 C 0.44494 0.87763 0.66723 0.0
C343 C 0.45925 0.87309 0.64647 0.0
C344 C 0.45821 0.86233 0.61679 0.0
C345 C 0.44288 0.85614 0.60800 0.0
C346 C 0.42857 0.86071 0.62867 0.0
C347 C 0.42961 0.87145 0.65831 0.0
C348 C 0.45605 0.84433 0.55839 0.0
C349 C 0.45144 0.83517 0.52844 0.0
C350 C 0.45278 0.81764 0.52969 0.0
C351 C 0.44541 0.80868 0.50233 0.0
C352 C 0.43841 0.81707 0.47198 0.0
C353 C 0.43841 0.83453 0.46942 0.0
C354 C 0.44491 0.84359 0.49773 0.0
C355 C 0.44377 0.86115 0.49647 0.0
C356 C 0.46031 0.80921 0.55951 0.0
C357 C 0.43094 0.80802 0.44484 0.0
C358 C 0.44481 0.79135 0.50539 0.0
C359 C 0.42640 0.77217 0.51348 0.0
C360 C 0.44025 0.76051 0.50798 0.0
C361 C 0.43800 0.74337 0.50616 0.0
C362 C 0.42192 0.73792 0.50984 0.0
C363 C 0.40809 0.74959 0.51561 0.0
C364 C 0.41034 0.76673 0.51743 0.0
C365 C 0.41971 0.72077 0.50767 0.0
C366 C 0.43359 0.70919 0.50175 0.0
C367 C 0.43115 0.84307 0.43960 0.0
C368 C 0.43777 0.85200 0.38488 0.0
C369 C 0.42105 0.85871 0.38262 0.0
C370 C 0.41619 0.87033 0.35556 0.0
C371 C 0.42808 0.87523 0.33091 0.0
C372 C 0.44479 0.86847 0.33316 0.0
C373 C 0.44964 0.85684 0.36017 0.0
C374 C 0.42333 0.88694 0.30401 0.0
C375 C 0.43534 0.89186 0.27969 0.0
O376 O 0.44171 0.84575 0.57881 0.0
O377 O 0.44270 0.84121 0.41230 0.0
O378 O 0.42854 0.78898 0.51418 0.0
H379 H 0.42018 0.88805 0.71066 0.0
H380 H 0.45716 0.89298 0.70379 0.0
H381 H 0.47060 0.87767 0.65307 0.0
H382 H 0.46878 0.85897 0.60136 0.0
H383 H 0.41722 0.85615 0.62201 0.0
H384 H 0.41903 0.87482 0.67367 0.0
H385 H 0.46586 0.83794 0.57237 0.0
H386 H 0.45923 0.85607 0.55044 0.0
H387 H 0.43605 0.86527 0.47520 0.0
H388 H 0.45561 0.86523 0.49281 0.0
H389 H 0.43875 0.86593 0.52053 0.0
H390 H 0.46034 0.81737 0.58131 0.0
H391 H 0.47258 0.80502 0.55305 0.0
H392 H 0.45376 0.79903 0.56615 0.0
H393 H 0.42572 0.81624 0.42546 0.0
H394 H 0.42163 0.80147 0.45617 0.0
H395 H 0.43991 0.79961 0.43301 0.0
H396 H 0.44792 0.78562 0.48089 0.0
H397 H 0.45291 0.78657 0.52546 0.0
H398 H 0.45214 0.76458 0.50512 0.0
H399 H 0.44823 0.73471 0.50201 0.0
H400 H 0.39619 0.74554 0.51846 0.0
H401 H 0.40011 0.77541 0.52157 0.0
H402 H 0.40783 0.71666 0.51040 0.0
H403 H 0.44545 0.71333 0.49903 0.0
H404 H 0.42010 0.83816 0.43192 0.0
H405 H 0.42879 0.85569 0.44596 0.0
H406 H 0.41231 0.85516 0.40108 0.0
H407 H 0.40382 0.87535 0.35384 0.0
H408 H 0.45357 0.87212 0.31488 0.0
H409 H 0.46202 0.85190 0.36203 0.0
H410 H 0.41097 0.89199 0.30214 0.0
H411 H 0.44769 0.88679 0.28166 0.0
C412 C 0.41224 0.50607 0.50800 0.0
C413 C 0.39504 0.51115 0.50786 0.0
C414 C 0.38952 0.52803 0.50207 0.0
C415 C 0.40121 0.53981 0.49628 0.0
C416 C 0.41841 0.53472 0.49636 0.0
C417 C 0.42393 0.51785 0.50226 0.0
N418 N 0.37232 0.53314 0.50219 0.0
N419 N 0.36680 0.55005 0.49678 0.0
C420 C 0.34962 0.55520 0.49781 0.0
C421 C 0.34408 0.57214 0.49286 0.0
C422 C 0.32690 0.57729 0.49418 0.0
C423 C 0.31526 0.56551 0.50035 0.0
C424 C 0.32079 0.54856 0.50513 0.0
C425 C 0.33797 0.54341 0.50385 0.0
H426 H 0.41632 0.49357 0.51235 0.0
H427 H 0.38638 0.50242 0.51204 0.0
H428 H 0.39713 0.55231 0.49193 0.0
H429 H 0.42706 0.54344 0.49206 0.0
H430 H 0.35270 0.58086 0.48821 0.0
H431 H 0.32281 0.58984 0.49059 0.0
H432 H 0.31218 0.53983 0.50962 0.0
H433 H 0.34207 0.53086 0.50737 0.0
C434 C 0.51945 0.41710 0.53866 0.0
C435 C 0.52646 0.40055 0.54286 0.0
C436 C 0.53256 0.39135 0.51274 0.0
C437 C 0.53170 0.39872 0.47845 0.0
C438 C 0.52471 0.41527 0.47426 0.0
C439 C 0.51858 0.42446 0.50437 0.0
N440 N 0.53946 0.37476 0.51691 0.0
N441 N 0.54539 0.36549 0.48675 0.0
C442 C 0.55190 0.34877 0.49085 0.0
C443 C 0.55765 0.33941 0.46066 0.0
C444 C 0.56403 0.32265 0.46475 0.0
C445 C 0.56471 0.31526 0.49903 0.0
C446 C 0.55903 0.32465 0.52923 0.0
C447 C 0.55263 0.34140 0.52514 0.0
H448 H 0.51491 0.42390 0.56096 0.0
H449 H 0.52714 0.39511 0.56827 0.0
H450 H 0.53624 0.39191 0.45616 0.0
H451 H 0.52409 0.42072 0.44888 0.0
H452 H 0.55719 0.34488 0.43530 0.0
H453 H 0.56826 0.31570 0.44239 0.0
H454 H 0.55957 0.31920 0.55462 0.0
H455 H 0.54844 0.34835 0.54750 0.0
C456 C 0.57828 0.46491 0.51272 0.0
C457 C 0.59426 0.45627 0.51437 0.0
C458 C 0.60847 0.46460 0.50612 0.0
C459 C 0.60669 0.48157 0.49635 0.0
C460 C 0.59071 0.49020 0.49476 0.0
C461 C 0.57650 0.48187 0.50291 0.0
N462 N 0.62444 0.45593 0.50752 0.0
N463 N 0.63865 0.46420 0.49890 0.0
C464 C 0.65457 0.45540 0.49944 0.0
C465 C 0.66877 0.46359 0.49039 0.0
C466 C 0.68467 0.45474 0.49066 0.0
C467 C 0.68638 0.43773 0.50008 0.0
C468 C 0.67219 0.42957 0.50928 0.0
C469 C 0.65629 0.43840 0.50897 0.0
H470 H 0.56775 0.45873 0.51877 0.0
H471 H 0.59558 0.44372 0.52170 0.0
H472 H 0.61721 0.48774 0.49030 0.0
H473 H 0.58940 0.50277 0.48755 0.0
H474 H 0.66751 0.47619 0.48350 0.0
H475 H 0.69518 0.46079 0.48389 0.0
H476 H 0.67345 0.41698 0.51633 0.0
H477 H 0.64578 0.43236 0.51581 0.0
C478 C 0.49520 0.58896 0.49641 0.0
C479 C 0.49011 0.60616 0.49617 0.0
C480 C 0.47320 0.61170 0.50141 0.0
C481 C 0.46139 0.60003 0.50704 0.0
C482 C 0.46648 0.58283 0.50734 0.0
C483 C 0.48338 0.57729 0.50199 0.0
N484 N 0.46810 0.62889 0.50091 0.0
N485 N 0.45115 0.63443 0.50577 0.0
C486 C 0.44601 0.65161 0.50435 0.0
C487 C 0.42905 0.65717 0.50875 0.0
C488 C 0.42390 0.67434 0.50705 0.0
C489 C 0.43572 0.68596 0.50104 0.0
C490 C 0.45270 0.68041 0.49680 0.0
C491 C 0.45784 0.66324 0.49847 0.0
H492 H 0.50772 0.58486 0.49247 0.0
H493 H 0.49887 0.61480 0.49210 0.0
H494 H 0.44886 0.60412 0.51098 0.0
H495 H 0.45773 0.57419 0.51153 0.0
H496 H 0.42030 0.64857 0.51329 0.0
H497 H 0.41133 0.67845 0.51023 0.0
H498 H 0.46146 0.68901 0.49243 0.0
H499 H 0.47041 0.65913 0.49535 0.0
C500 C 0.03985 0.53176 0.88185 0.0
C501 C 0.05055 0.53837 0.85672 0.0
C502 C 0.06125 0.54497 0.83158 0.0
C503 C 0.07198 0.55156 0.80652 0.0
C504 C 0.08278 0.55815 0.78155 0.0
C505 C 0.09361 0.56472 0.75665 0.0
C506 C 0.51233 0.05080 0.87895 0.0
C507 C 0.52199 0.05942 0.85495 0.0
C508 C 0.53166 0.06805 0.83094 0.0
C509 C 0.54135 0.07668 0.80703 0.0
C510 C 0.55111 0.08532 0.78321 0.0
C511 C 0.56088 0.09396 0.75949 0.0
C512 C 0.94803 0.48861 0.12123 0.0
C513 C 0.93966 0.47888 0.14555 0.0
C514 C 0.93130 0.46914 0.16990 0.0
C515 C 0.92295 0.45937 0.19415 0.0
C516 C 0.91459 0.44953 0.21833 0.0
C517 C 0.90625 0.43967 0.24243 0.0
C518 C 0.46827 0.95948 0.11798 0.0
C519 C 0.46172 0.94891 0.14344 0.0
C520 C 0.45517 0.93833 0.16893 0.0
C521 C 0.44868 0.92775 0.19441 0.0
C522 C 0.44224 0.91712 0.21994 0.0
C523 C 0.43585 0.90648 0.24547 0.0
C524 C 0.53262 0.04199 0.11841 0.0
C525 C 0.53918 0.05257 0.14399 0.0
C526 C 0.54574 0.06316 0.16960 0.0
C527 C 0.55226 0.07375 0.19520 0.0
C528 C 0.55871 0.08437 0.22089 0.0
C529 C 0.56511 0.09500 0.24657 0.0
C530 C 0.05305 0.51278 0.12153 0.0
C531 C 0.06146 0.52252 0.14591 0.0
C532 C 0.06988 0.53228 0.17030 0.0
C533 C 0.07825 0.54205 0.19467 0.0
C534 C 0.08657 0.55189 0.21907 0.0
C535 C 0.09484 0.56175 0.24345 0.0
C536 C 0.96113 0.46964 0.88151 0.0
C537 C 0.95031 0.46309 0.85642 0.0
C538 C 0.93949 0.45653 0.83130 0.0
C539 C 0.92871 0.44996 0.80617 0.0
C540 C 0.91798 0.44335 0.78092 0.0
C541 C 0.90729 0.43672 0.75565 0.0
C542 C 0.48852 0.95069 0.87867 0.0
C543 C 0.47878 0.94210 0.85462 0.0
C544 C 0.46902 0.93350 0.83055 0.0
C545 C 0.45931 0.92487 0.80651 0.0
C546 C 0.44964 0.91618 0.78247 0.0
C547 C 0.44000 0.90745 0.75845 0.0
