data_{}
_symmetry_space_group_name_H-M    P1
_symmetry_Int_Tables_number       1
_symmetry_cell_setting            triclinic
loop_
_symmetry_equiv_pos_as_xyz
'x, y, z'
_cell_length_a     41.674
_cell_length_b     41.237
_cell_length_c     84.133
_cell_angle_alpha  90.035
_cell_angle_beta   75.668
_cell_angle_gamma  89.998
loop_
_atom_site_label
_atom_site_type_symbol
_atom_site_fract_x
_atom_site_fract_y
_atom_site_fract_z
_atom_type_partial_charge
C0 C 0.25303 0.02150 0.01240 0.0
C1 C 0.22966 0.02149 0.00010 0.0
C2 C 0.21813 0.98901 0.99510 0.0
C3 C 0.21813 0.05396 0.99510 0.0
C4 C 0.26455 0.05398 0.01812 0.0
C5 C 0.26456 0.98904 0.01812 0.0
C6 C 0.23896 0.97192 0.97975 0.0
C7 C 0.22606 0.94111 0.97336 0.0
C8 C 0.19508 0.92406 0.98367 0.0
C9 C 0.17425 0.94114 0.99990 0.0
C10 C 0.18715 0.97196 0.00541 0.0
C11 C 0.23896 0.07100 0.97976 0.0
C12 C 0.22606 0.10181 0.97336 0.0
C13 C 0.19508 0.11889 0.98367 0.0
C14 C 0.17425 0.10184 0.99990 0.0
C15 C 0.18714 0.07104 0.00541 0.0
C16 C 0.24372 0.07107 0.03346 0.0
C17 C 0.25662 0.10189 0.03986 0.0
C18 C 0.28761 0.11894 0.02955 0.0
C19 C 0.30844 0.10185 0.01421 0.0
C20 C 0.29554 0.07104 0.00781 0.0
C21 C 0.24372 0.97199 0.03346 0.0
C22 C 0.25662 0.94119 0.03986 0.0
C23 C 0.28761 0.92411 0.02955 0.0
C24 C 0.30844 0.94116 0.01420 0.0
C25 C 0.29554 0.97196 0.00781 0.0
H26 H 0.26408 0.98227 0.97314 0.0
H27 H 0.23943 0.93074 0.96092 0.0
H28 H 0.14912 0.93084 0.00564 0.0
H29 H 0.17377 0.98233 0.01785 0.0
H30 H 0.26408 0.06064 0.97314 0.0
H31 H 0.23944 0.11215 0.96092 0.0
H32 H 0.17377 0.06070 0.01785 0.0
H33 H 0.21860 0.06073 0.04008 0.0
H34 H 0.24325 0.11226 0.05230 0.0
H35 H 0.33357 0.11215 0.00757 0.0
H36 H 0.30891 0.06067 0.99537 0.0
H37 H 0.21860 0.98235 0.04008 0.0
H38 H 0.24325 0.93085 0.05230 0.0
H39 H 0.33357 0.93083 0.00757 0.0
H40 H 0.30891 0.98229 0.99537 0.0
H41 H 0.14912 0.11216 0.00565 0.0
C42 C 0.23647 0.02110 0.51610 0.0
C43 C 0.24601 0.02116 0.49722 0.0
C44 C 0.28282 0.02119 0.48795 0.0
C45 C 0.21860 0.02119 0.48786 0.0
C46 C 0.19966 0.02108 0.52537 0.0
C47 C 0.26388 0.02108 0.52546 0.0
C48 C 0.30175 0.05331 0.48390 0.0
C49 C 0.33747 0.05334 0.47352 0.0
C50 C 0.35644 0.02125 0.46941 0.0
C51 C 0.33751 0.98912 0.47345 0.0
C52 C 0.30178 0.98909 0.48383 0.0
C53 C 0.20377 0.05331 0.48377 0.0
C54 C 0.17857 0.05334 0.47331 0.0
C55 C 0.16378 0.02125 0.46915 0.0
C56 C 0.17861 0.98912 0.47324 0.0
C57 C 0.20381 0.98909 0.48370 0.0
C58 C 0.18073 0.98895 0.52941 0.0
C59 C 0.14501 0.98892 0.53980 0.0
C60 C 0.12604 0.02102 0.54391 0.0
C61 C 0.14497 0.05314 0.53987 0.0
C62 C 0.18069 0.05317 0.52949 0.0
C63 C 0.27870 0.98895 0.52955 0.0
C64 C 0.30391 0.98892 0.54001 0.0
C65 C 0.31870 0.02102 0.54417 0.0
C66 C 0.30387 0.05314 0.54008 0.0
C67 C 0.27867 0.05317 0.52962 0.0
H68 H 0.28910 0.07715 0.48866 0.0
H69 H 0.35009 0.07721 0.46882 0.0
H70 H 0.35011 0.96526 0.46871 0.0
H71 H 0.28916 0.96522 0.48854 0.0
H72 H 0.21160 0.07715 0.48856 0.0
H73 H 0.17071 0.07721 0.46858 0.0
H74 H 0.21167 0.96522 0.48844 0.0
H75 H 0.19338 0.96511 0.52466 0.0
H76 H 0.13238 0.96505 0.54450 0.0
H77 H 0.13237 0.07701 0.54461 0.0
H78 H 0.19332 0.07704 0.52478 0.0
H79 H 0.27088 0.96511 0.52476 0.0
H80 H 0.31177 0.96505 0.54474 0.0
H81 H 0.31166 0.07701 0.54485 0.0
H82 H 0.27081 0.07704 0.52488 0.0
H83 H 0.17081 0.96525 0.46847 0.0
Si84 Si 0.09687 0.02607 0.77985 0.0
H85 H 0.08952 0.13826 0.80117 0.0
H86 H 0.09639 0.09896 0.78065 0.0
H87 H 0.00215 0.07005 0.76107 0.0
H88 H 0.19426 0.97623 0.74386 0.0
H89 H 0.04072 0.98447 0.79533 0.0
H90 H 0.19998 0.07397 0.74643 0.0
H91 H 0.04197 0.07118 0.77636 0.0
H92 H 0.13128 0.93463 0.80870 0.0
H93 H 0.08113 0.06765 0.83534 0.0
H94 H 0.08704 0.02846 0.81498 0.0
H95 H 0.14881 0.07509 0.76547 0.0
H96 H 0.03242 0.94024 0.81299 0.0
H97 H 0.03783 0.98369 0.74144 0.0
H98 H 0.07907 0.98592 0.75574 0.0
H99 H 0.13945 0.97905 0.79121 0.0
H100 H 0.14121 0.97794 0.76098 0.0
C101 C 0.06474 0.02861 0.76776 0.0
C102 C 0.13926 0.02655 0.76541 0.0
C103 C 0.01578 0.02640 0.75008 0.0
C104 C 0.09106 0.98689 0.79144 0.0
C105 C 0.08448 0.10672 0.82031 0.0
C106 C 0.08907 0.11591 0.80398 0.0
C107 C 0.09303 0.09242 0.79175 0.0
C108 C 0.01742 0.05269 0.76023 0.0
C109 C 0.09216 0.05927 0.79552 0.0
C110 C 0.18482 0.99647 0.74796 0.0
C111 C 0.05921 0.97458 0.79808 0.0
C112 C 0.18845 0.05428 0.74973 0.0
C113 C 0.04145 0.05349 0.76919 0.0
C114 C 0.11279 0.94485 0.80610 0.0
C115 C 0.08398 0.07407 0.82424 0.0
C116 C 0.20259 0.02497 0.74343 0.0
C117 C 0.08763 0.05072 0.81206 0.0
C118 C 0.15760 0.05497 0.76087 0.0
C119 C 0.08090 0.93324 0.81281 0.0
C120 C 0.05421 0.94818 0.80861 0.0
C121 C 0.03876 0.00154 0.74845 0.0
C122 C 0.06314 0.00283 0.75709 0.0
C123 C 0.11761 0.97130 0.79565 0.0
C124 C 0.15344 0.99750 0.75845 0.0
Si125 Si 0.38565 0.02665 0.23343 0.0
H126 H 0.39300 0.13877 0.21210 0.0
H127 H 0.38613 0.09953 0.23263 0.0
H128 H 0.48036 0.07068 0.25221 0.0
H129 H 0.28826 0.97691 0.26943 0.0
H130 H 0.44180 0.98500 0.21796 0.0
H131 H 0.28253 0.07464 0.26685 0.0
H132 H 0.44055 0.07176 0.23692 0.0
H133 H 0.35125 0.93512 0.20459 0.0
H134 H 0.40140 0.06807 0.17794 0.0
H135 H 0.39548 0.02893 0.19831 0.0
H136 H 0.33371 0.07571 0.24781 0.0
H137 H 0.45010 0.94072 0.20030 0.0
H138 H 0.44468 0.98437 0.27185 0.0
H139 H 0.40344 0.98656 0.25754 0.0
H140 H 0.34307 0.97959 0.22207 0.0
H141 H 0.34131 0.97856 0.25231 0.0
C142 C 0.41778 0.02922 0.24553 0.0
C143 C 0.34326 0.02716 0.24787 0.0
C144 C 0.46673 0.02705 0.26321 0.0
C145 C 0.39146 0.98743 0.22185 0.0
C146 C 0.39804 0.10718 0.19297 0.0
C147 C 0.39345 0.11642 0.20930 0.0
C148 C 0.38949 0.09296 0.22153 0.0
C149 C 0.46509 0.05332 0.25305 0.0
C150 C 0.39036 0.05980 0.21776 0.0
C151 C 0.29769 0.99713 0.26532 0.0
C152 C 0.42331 0.97510 0.21521 0.0
C153 C 0.29406 0.05494 0.26355 0.0
C154 C 0.44106 0.05409 0.24410 0.0
C155 C 0.36973 0.94535 0.20719 0.0
C156 C 0.39854 0.07452 0.18904 0.0
C157 C 0.27993 0.02565 0.26985 0.0
C158 C 0.39489 0.05120 0.20122 0.0
C159 C 0.32492 0.05560 0.25241 0.0
C160 C 0.40163 0.93372 0.20048 0.0
C161 C 0.42831 0.94867 0.20468 0.0
C162 C 0.44375 0.00220 0.26484 0.0
C163 C 0.41937 0.00347 0.25619 0.0
C164 C 0.36491 0.97183 0.21764 0.0
C165 C 0.32907 0.99813 0.25484 0.0
H166 H 0.03712 0.47016 0.92270 0.0
H167 H 0.04058 0.57955 0.92064 0.0
H168 H 0.01503 0.57736 0.87712 0.0
H169 H 0.01158 0.46797 0.87918 0.0
H170 H 0.02295 0.38487 0.90221 0.0
H171 H 0.02920 0.66265 0.89761 0.0
C172 C 0.03141 0.42482 0.91443 0.0
C173 C 0.03186 0.45846 0.91409 0.0
C174 C 0.03586 0.62399 0.91113 0.0
C175 C 0.03555 0.59037 0.91172 0.0
C176 C 0.02075 0.62270 0.88539 0.0
C177 C 0.02030 0.58906 0.88573 0.0
C178 C 0.01630 0.42352 0.88869 0.0
C179 C 0.01660 0.45715 0.88810 0.0
C180 C 0.02575 0.50953 0.90015 0.0
C181 C 0.02347 0.40761 0.90183 0.0
C182 C 0.02446 0.47506 0.90085 0.0
C183 C 0.02641 0.53798 0.89967 0.0
C184 C 0.02868 0.63990 0.89799 0.0
C185 C 0.02770 0.57246 0.89897 0.0
H186 H 0.76327 0.01742 0.36179 0.0
H187 H 0.87201 0.01324 0.36081 0.0
H188 H 0.89508 0.01113 0.31103 0.0
H189 H 0.78633 0.01530 0.31201 0.0
H190 H 0.69110 0.01829 0.33768 0.0
H191 H 0.96725 0.01025 0.33515 0.0
C192 C 0.72335 0.01777 0.35204 0.0
C193 C 0.75672 0.01718 0.35187 0.0
C194 C 0.92136 0.01203 0.35022 0.0
C195 C 0.88785 0.01263 0.35068 0.0
C196 C 0.93500 0.01078 0.32079 0.0
C197 C 0.90162 0.01137 0.32095 0.0
C198 C 0.73699 0.01652 0.32260 0.0
C199 C 0.77049 0.01592 0.32215 0.0
C200 C 0.81503 0.01469 0.33654 0.0
C201 C 0.71371 0.01763 0.33747 0.0
C202 C 0.78077 0.01621 0.33685 0.0
C203 C 0.84331 0.01385 0.33628 0.0
C204 C 0.94464 0.01092 0.33535 0.0
C205 C 0.87758 0.01234 0.33597 0.0
H206 H 0.47409 0.57767 0.13444 0.0
H207 H 0.46934 0.46827 0.13452 0.0
H208 H 0.43898 0.47036 0.09226 0.0
H209 H 0.44372 0.57975 0.09218 0.0
H210 H 0.46131 0.66290 0.11359 0.0
H211 H 0.45175 0.38512 0.11311 0.0
C212 C 0.46892 0.62299 0.12602 0.0
C213 C 0.46823 0.58935 0.12598 0.0
C214 C 0.46210 0.42381 0.12567 0.0
C215 C 0.46297 0.45743 0.12595 0.0
C216 C 0.44414 0.42504 0.10068 0.0
C217 C 0.44484 0.45868 0.10072 0.0
C218 C 0.45097 0.62422 0.10103 0.0
C219 C 0.45009 0.59059 0.10075 0.0
C220 C 0.45703 0.53824 0.11337 0.0
C221 C 0.46052 0.64016 0.11355 0.0
C222 C 0.45872 0.57271 0.11329 0.0
C223 C 0.45604 0.50979 0.11333 0.0
C224 C 0.45254 0.40786 0.11315 0.0
C225 C 0.45434 0.47531 0.11341 0.0
H226 H 0.71923 0.01644 0.65151 0.0
H227 H 0.61048 0.01226 0.65249 0.0
H228 H 0.58742 0.01005 0.70227 0.0
H229 H 0.69616 0.01422 0.70129 0.0
H230 H 0.79140 0.01727 0.67563 0.0
H231 H 0.51525 0.00922 0.67815 0.0
C232 C 0.75914 0.01677 0.66127 0.0
C233 C 0.72577 0.01618 0.66143 0.0
C234 C 0.56114 0.01103 0.66308 0.0
C235 C 0.59465 0.01163 0.66262 0.0
C236 C 0.54750 0.00972 0.69251 0.0
C237 C 0.58087 0.01030 0.69235 0.0
C238 C 0.74551 0.01546 0.69070 0.0
C239 C 0.71200 0.01486 0.69116 0.0
C240 C 0.66746 0.01366 0.67676 0.0
C241 C 0.76879 0.01660 0.67584 0.0
C242 C 0.70173 0.01518 0.67645 0.0
C243 C 0.63918 0.01282 0.67702 0.0
C244 C 0.53786 0.00989 0.67794 0.0
C245 C 0.60492 0.01130 0.67733 0.0
C246 C 0.02182 0.21416 0.84382 0.0
C247 C 0.05064 0.23754 0.84383 0.0
C248 C 0.08664 0.22647 0.83677 0.0
C249 C 0.09384 0.19203 0.82970 0.0
C250 C 0.06504 0.16865 0.82969 0.0
C251 C 0.02903 0.17972 0.83675 0.0
C252 C 0.04348 0.27199 0.85089 0.0
C253 C 0.03641 0.30646 0.85795 0.0
C254 C 0.02940 0.34094 0.86499 0.0
C255 C 0.02244 0.37543 0.87203 0.0
H256 H 0.99517 0.22236 0.84905 0.0
H257 H 0.10797 0.24376 0.83677 0.0
H258 H 0.12050 0.18385 0.82447 0.0
H259 H 0.00770 0.16242 0.83675 0.0
C260 C 0.16253 0.99784 0.29511 0.0
C261 C 0.14184 0.01896 0.28628 0.0
C262 C 0.15925 0.04105 0.27200 0.0
C263 C 0.19733 0.04205 0.26654 0.0
C264 C 0.21803 0.02094 0.27536 0.0
C265 C 0.20063 0.99884 0.28965 0.0
C266 C 0.10375 0.01799 0.29172 0.0
C267 C 0.06565 0.01708 0.29714 0.0
C268 C 0.02755 0.01621 0.30252 0.0
C269 C 0.98945 0.01537 0.30789 0.0
H270 H 0.14965 0.98148 0.30569 0.0
H271 H 0.14394 0.05669 0.26546 0.0
H272 H 0.21021 0.05841 0.25596 0.0
H273 H 0.21594 0.98321 0.29619 0.0
C274 C 0.46045 0.21353 0.16805 0.0
C275 C 0.43191 0.23793 0.16943 0.0
C276 C 0.39618 0.22790 0.17789 0.0
C277 C 0.38897 0.19349 0.18496 0.0
C278 C 0.41750 0.16909 0.18358 0.0
C279 C 0.45324 0.17911 0.17513 0.0
C280 C 0.43907 0.27236 0.16236 0.0
C281 C 0.44615 0.30680 0.15531 0.0
C282 C 0.45317 0.34127 0.14827 0.0
C283 C 0.46014 0.37575 0.14123 0.0
H284 H 0.48691 0.22095 0.16179 0.0
H285 H 0.37505 0.24595 0.17891 0.0
H286 H 0.36251 0.18608 0.19123 0.0
H287 H 0.47436 0.16106 0.17410 0.0
C288 C 0.32265 0.01081 0.74515 0.0
C289 C 0.34069 0.01822 0.72723 0.0
C290 C 0.32062 0.02663 0.71468 0.0
C291 C 0.28252 0.02764 0.72005 0.0
C292 C 0.26449 0.02023 0.73797 0.0
C293 C 0.28455 0.01182 0.75052 0.0
C294 C 0.37878 0.01723 0.72183 0.0
C295 C 0.41687 0.01626 0.71640 0.0
C296 C 0.45497 0.01531 0.71094 0.0
C297 C 0.49306 0.01437 0.70546 0.0
H298 H 0.33750 0.00459 0.75444 0.0
H299 H 0.33396 0.03211 0.70141 0.0
H300 H 0.26768 0.03387 0.71076 0.0
H301 H 0.27119 0.00633 0.76378 0.0
C302 C 0.08519 0.82752 0.83870 0.0
C303 C 0.04989 0.81346 0.84234 0.0
C304 C 0.02146 0.83376 0.83878 0.0
C305 C 0.02831 0.86812 0.83158 0.0
C306 C 0.06360 0.88218 0.82793 0.0
C307 C 0.09204 0.86188 0.83150 0.0
C308 C 0.04299 0.77911 0.84955 0.0
C309 C 0.03601 0.74476 0.85675 0.0
C310 C 0.02897 0.71042 0.86395 0.0
C311 C 0.02188 0.67608 0.87115 0.0
H312 H 0.10625 0.81249 0.84134 0.0
H313 H 0.99532 0.82337 0.84148 0.0
H314 H 0.00725 0.88313 0.82894 0.0
H315 H 0.11817 0.87228 0.82880 0.0
C316 C 0.94393 0.01472 0.71488 0.0
C317 C 0.91030 0.01646 0.72760 0.0
C318 C 0.90907 0.01883 0.74600 0.0
C319 C 0.94145 0.01946 0.75170 0.0
C320 C 0.97507 0.01772 0.73899 0.0
C321 C 0.97631 0.01535 0.72058 0.0
C322 C 0.87790 0.01584 0.72193 0.0
C323 C 0.84545 0.01522 0.71629 0.0
C324 C 0.81296 0.01461 0.71069 0.0
C325 C 0.78044 0.01400 0.70511 0.0
H326 H 0.94485 0.01296 0.70125 0.0
H327 H 0.88418 0.02011 0.75542 0.0
H328 H 0.94052 0.02123 0.76533 0.0
H329 H 0.00120 0.01406 0.71117 0.0
C330 C 0.39684 0.82654 0.17631 0.0
C331 C 0.43265 0.81384 0.17095 0.0
C332 C 0.46159 0.83554 0.17279 0.0
C333 C 0.45474 0.86991 0.17999 0.0
C334 C 0.41893 0.88260 0.18535 0.0
C335 C 0.38998 0.86091 0.18352 0.0
C336 C 0.43956 0.77948 0.16375 0.0
C337 C 0.44655 0.74512 0.15654 0.0
C338 C 0.45360 0.71076 0.14934 0.0
C339 C 0.46070 0.67641 0.14213 0.0
H340 H 0.37541 0.81048 0.17495 0.0
H341 H 0.48811 0.82615 0.16882 0.0
H342 H 0.47617 0.88595 0.18136 0.0
H343 H 0.36347 0.87031 0.18748 0.0
C344 C 0.57353 0.01919 0.26704 0.0
C345 C 0.57248 0.01733 0.28544 0.0
C346 C 0.53894 0.01604 0.29824 0.0
C347 C 0.50645 0.01660 0.29265 0.0
C348 C 0.50749 0.01845 0.27425 0.0
C349 C 0.54103 0.01974 0.26145 0.0
C350 C 0.60495 0.01677 0.29106 0.0
C351 C 0.63737 0.01620 0.29672 0.0
C352 C 0.66976 0.01562 0.30241 0.0
C353 C 0.70213 0.01504 0.30813 0.0
H354 H 0.59836 0.02014 0.25756 0.0
H355 H 0.53816 0.01468 0.31187 0.0
H356 H 0.48163 0.01563 0.30213 0.0
H357 H 0.54181 0.02112 0.24783 0.0
C358 C 0.18607 0.14293 0.97956 0.0
C359 C 0.17019 0.17222 0.97309 0.0
C360 C 0.15432 0.20151 0.96662 0.0
C361 C 0.11652 0.20288 0.96890 0.0
C362 C 0.10067 0.23218 0.96243 0.0
C363 C 0.12260 0.26010 0.95368 0.0
C364 C 0.16040 0.25873 0.95141 0.0
C365 C 0.17625 0.22943 0.95788 0.0
C366 C 0.10673 0.28941 0.94723 0.0
C367 C 0.12865 0.31735 0.93849 0.0
C368 C 0.11277 0.34665 0.93204 0.0
C369 C 0.07497 0.34799 0.93430 0.0
C370 C 0.05305 0.32004 0.94304 0.0
C371 C 0.06893 0.29075 0.94949 0.0
C372 C 0.05908 0.37728 0.92785 0.0
C373 C 0.04315 0.40655 0.92139 0.0
H374 H 0.10028 0.18220 0.97537 0.0
H375 H 0.07269 0.23319 0.96411 0.0
H376 H 0.17664 0.27941 0.94494 0.0
H377 H 0.20423 0.22840 0.95619 0.0
H378 H 0.15663 0.31636 0.93681 0.0
H379 H 0.12899 0.36735 0.92558 0.0
H380 H 0.02506 0.32104 0.94472 0.0
H381 H 0.05271 0.27005 0.95596 0.0
C382 C 0.14399 0.02109 0.46259 0.0
C383 C 0.11994 0.02034 0.45134 0.0
C384 C 0.09588 0.01960 0.44009 0.0
C385 C 0.10946 0.01969 0.42131 0.0
C386 C 0.08539 0.01894 0.41007 0.0
C387 C 0.04775 0.01810 0.41760 0.0
C388 C 0.03417 0.01800 0.43637 0.0
C389 C 0.05824 0.01876 0.44761 0.0
C390 C 0.02369 0.01732 0.40635 0.0
C391 C 0.98605 0.01646 0.41387 0.0
C392 C 0.96200 0.01568 0.40261 0.0
C393 C 0.97559 0.01581 0.38384 0.0
C394 C 0.01324 0.01668 0.37632 0.0
C395 C 0.03728 0.01744 0.38758 0.0
C396 C 0.95155 0.01504 0.37259 0.0
C397 C 0.92755 0.01429 0.36131 0.0
H398 H 0.13732 0.02032 0.41574 0.0
H399 H 0.09544 0.01901 0.39618 0.0
H400 H 0.00631 0.01737 0.44194 0.0
H401 H 0.04820 0.01871 0.46150 0.0
H402 H 0.97598 0.01638 0.42776 0.0
H403 H 0.93413 0.01502 0.40818 0.0
H404 H 0.02330 0.01675 0.36243 0.0
H405 H 0.06515 0.01809 0.38202 0.0
C406 C 0.29662 0.14299 0.03366 0.0
C407 C 0.31249 0.17229 0.04013 0.0
C408 C 0.32837 0.20159 0.04660 0.0
C409 C 0.36153 0.21537 0.03653 0.0
C410 C 0.37739 0.24467 0.04301 0.0
C411 C 0.36009 0.26019 0.05956 0.0
C412 C 0.32693 0.24641 0.06964 0.0
C413 C 0.31108 0.21711 0.06316 0.0
C414 C 0.37594 0.28951 0.06603 0.0
C415 C 0.35864 0.30505 0.08257 0.0
C416 C 0.37451 0.33437 0.08904 0.0
C417 C 0.40768 0.34812 0.07896 0.0
C418 C 0.42499 0.33257 0.06241 0.0
C419 C 0.40912 0.30326 0.05595 0.0
C420 C 0.42356 0.37743 0.08542 0.0
C421 C 0.43948 0.40673 0.09187 0.0
H422 H 0.37434 0.20387 0.02427 0.0
H423 H 0.40193 0.25487 0.03555 0.0
H424 H 0.31412 0.25791 0.08189 0.0
H425 H 0.28654 0.20690 0.07062 0.0
H426 H 0.33409 0.29487 0.09004 0.0
H427 H 0.36170 0.34590 0.10128 0.0
H428 H 0.44954 0.34276 0.05495 0.0
H429 H 0.42192 0.29174 0.04370 0.0
C430 C 0.33848 0.02081 0.55073 0.0
C431 C 0.36253 0.01997 0.56199 0.0
C432 C 0.38657 0.01913 0.57324 0.0
C433 C 0.42424 0.01875 0.56574 0.0
C434 C 0.44826 0.01792 0.57701 0.0
C435 C 0.43463 0.01745 0.59577 0.0
C436 C 0.39696 0.01782 0.60327 0.0
C437 C 0.37294 0.01865 0.59201 0.0
C438 C 0.45867 0.01664 0.60703 0.0
C439 C 0.44504 0.01619 0.62579 0.0
C440 C 0.46909 0.01538 0.63704 0.0
C441 C 0.50676 0.01498 0.62953 0.0
C442 C 0.52038 0.01542 0.61077 0.0
C443 C 0.49633 0.01624 0.59952 0.0
C444 C 0.53081 0.01416 0.64078 0.0
C445 C 0.55490 0.01332 0.65201 0.0
H446 H 0.43433 0.01909 0.55185 0.0
H447 H 0.47614 0.01765 0.57146 0.0
H448 H 0.38687 0.01748 0.61716 0.0
H449 H 0.34506 0.01891 0.59756 0.0
H450 H 0.41717 0.01647 0.63136 0.0
H451 H 0.45902 0.01506 0.65094 0.0
H452 H 0.54826 0.01514 0.60521 0.0
H453 H 0.50640 0.01656 0.58562 0.0
C454 C 0.18592 0.89978 0.97949 0.0
C455 C 0.17000 0.87057 0.97297 0.0
C456 C 0.15409 0.84136 0.96644 0.0
C457 C 0.15918 0.83650 0.94783 0.0
C458 C 0.14326 0.80728 0.94132 0.0
C459 C 0.12225 0.78293 0.95341 0.0
C460 C 0.11715 0.78778 0.97202 0.0
C461 C 0.13306 0.81700 0.97853 0.0
C462 C 0.10636 0.75370 0.94689 0.0
C463 C 0.08536 0.72932 0.95898 0.0
C464 C 0.06947 0.70010 0.95245 0.0
C465 C 0.07455 0.69527 0.93383 0.0
C466 C 0.09555 0.71965 0.92175 0.0
C467 C 0.11144 0.74887 0.92828 0.0
C468 C 0.05866 0.66605 0.92730 0.0
C469 C 0.04278 0.63686 0.92075 0.0
H470 H 0.17473 0.85454 0.93888 0.0
H471 H 0.14704 0.80368 0.92754 0.0
H472 H 0.10160 0.76975 0.98097 0.0
H473 H 0.12928 0.82061 0.99231 0.0
H474 H 0.08158 0.73290 0.97275 0.0
H475 H 0.05394 0.68204 0.96139 0.0
H476 H 0.09933 0.71607 0.90797 0.0
H477 H 0.12698 0.76693 0.91933 0.0
C478 C 0.09953 0.02081 0.55046 0.0
C479 C 0.06420 0.01997 0.56168 0.0
C480 C 0.02887 0.01913 0.57290 0.0
C481 C 0.02363 0.01771 0.59166 0.0
C482 C 0.98830 0.01688 0.60287 0.0
C483 C 0.95821 0.01745 0.59532 0.0
C484 C 0.96344 0.01886 0.57656 0.0
C485 C 0.99878 0.01969 0.56535 0.0
C486 C 0.92288 0.01664 0.60653 0.0
C487 C 0.89278 0.01724 0.59899 0.0
C488 C 0.85745 0.01642 0.61021 0.0
C489 C 0.85223 0.01498 0.62897 0.0
C490 C 0.88233 0.01438 0.63651 0.0
C491 C 0.91766 0.01520 0.62529 0.0
C492 C 0.81691 0.01416 0.64019 0.0
C493 C 0.78160 0.01332 0.65144 0.0
H494 H 0.04591 0.01728 0.59725 0.0
H495 H 0.98442 0.01583 0.61675 0.0
H496 H 0.94117 0.01929 0.57097 0.0
H497 H 0.00266 0.02072 0.55146 0.0
H498 H 0.89663 0.01829 0.58510 0.0
H499 H 0.83516 0.01688 0.60463 0.0
H500 H 0.87847 0.01333 0.65040 0.0
H501 H 0.93995 0.01475 0.63087 0.0
C502 C 0.29677 0.89984 0.03372 0.0
C503 C 0.31268 0.87064 0.04025 0.0
C504 C 0.32859 0.84145 0.04678 0.0
C505 C 0.32723 0.83891 0.06520 0.0
C506 C 0.34313 0.80971 0.07172 0.0
C507 C 0.36040 0.78304 0.05982 0.0
C508 C 0.36177 0.78558 0.04140 0.0
C509 C 0.34587 0.81478 0.03489 0.0
C510 C 0.37629 0.75383 0.06635 0.0
C511 C 0.39354 0.72715 0.05446 0.0
C512 C 0.40943 0.69794 0.06100 0.0
C513 C 0.40808 0.69544 0.07941 0.0
C514 C 0.39082 0.72213 0.09130 0.0
C515 C 0.37494 0.75133 0.08477 0.0
C516 C 0.42396 0.66624 0.08595 0.0
C517 C 0.43985 0.63706 0.09251 0.0
H518 H 0.31444 0.85866 0.07401 0.0
H519 H 0.34212 0.80783 0.08535 0.0
H520 H 0.37455 0.76583 0.03260 0.0
H521 H 0.34689 0.81667 0.02125 0.0
H522 H 0.39456 0.72900 0.04083 0.0
H523 H 0.42219 0.67817 0.05220 0.0
H524 H 0.38981 0.72026 0.10494 0.0
H525 H 0.36217 0.77109 0.09357 0.0
C526 C 0.38295 0.02108 0.46285 0.0
C527 C 0.41827 0.02034 0.45163 0.0
C528 C 0.45360 0.01959 0.44040 0.0
C529 C 0.48373 0.02053 0.44792 0.0
C530 C 0.51904 0.01977 0.43669 0.0
C531 C 0.52423 0.01809 0.41794 0.0
C532 C 0.49409 0.01716 0.41042 0.0
C533 C 0.45879 0.01792 0.42165 0.0
C534 C 0.55955 0.01732 0.40671 0.0
C535 C 0.56474 0.01561 0.38796 0.0
C536 C 0.60007 0.01484 0.37674 0.0
C537 C 0.63019 0.01580 0.38426 0.0
C538 C 0.62500 0.01751 0.40302 0.0
C539 C 0.58967 0.01828 0.41424 0.0
C540 C 0.66552 0.01504 0.37304 0.0
C541 C 0.70087 0.01429 0.36184 0.0
H542 H 0.47989 0.02178 0.46180 0.0
H543 H 0.54135 0.02046 0.44225 0.0
H544 H 0.49793 0.01591 0.39654 0.0
H545 H 0.43648 0.01725 0.41609 0.0
H546 H 0.54245 0.01492 0.38238 0.0
H547 H 0.60393 0.01356 0.36285 0.0
H548 H 0.64729 0.01820 0.40859 0.0
H549 H 0.58581 0.01955 0.42812 0.0
