data_{}
_symmetry_space_group_name_H-M    P1
_symmetry_Int_Tables_number       1
_symmetry_cell_setting            triclinic
loop_
_symmetry_equiv_pos_as_xyz
'x, y, z'
_cell_length_a     78.169
_cell_length_b     78.094
_cell_length_c     41.812
_cell_angle_alpha  90.512
_cell_angle_beta   90.091
_cell_angle_gamma  120.204
loop_
_atom_site_label
_atom_site_type_symbol
_atom_site_fract_x
_atom_site_fract_y
_atom_site_fract_z
_atom_type_partial_charge
C0 C 0.88722 0.89366 0.01009 0.0
C1 C 0.89520 0.90664 0.04052 0.0
C2 C 0.91432 0.92694 0.03896 0.0
C3 C 0.92253 0.94007 0.06921 0.0
C4 C 0.94170 0.96034 0.06741 0.0
C5 C 0.95263 0.96740 0.03540 0.0
C6 C 0.94439 0.95432 0.00517 0.0
C7 C 0.92525 0.93407 0.00696 0.0
C8 C 0.97556 0.99990 0.06362 0.0
C9 C 0.99320 0.01956 0.05433 0.0
C10 C 0.01437 0.02315 0.05715 0.0
C11 C 0.03154 0.04173 0.04205 0.0
C12 C 0.02792 0.05776 0.02775 0.0
C13 C 0.00696 0.05493 0.02776 0.0
C14 C 0.98958 0.03578 0.04102 0.0
C15 C 0.96835 0.03219 0.03862 0.0
C16 C 0.01808 0.00743 0.07257 0.0
C17 C 0.04517 0.07624 0.01245 0.0
C18 C 0.05230 0.04424 0.04079 0.0
C19 C 0.07616 0.04460 0.00215 0.0
C20 C 0.09016 0.05047 0.03123 0.0
C21 C 0.11183 0.05586 0.02657 0.0
C22 C 0.11945 0.05537 0.99284 0.0
C23 C 0.10539 0.04933 0.96378 0.0
C24 C 0.08372 0.04394 0.96844 0.0
C25 C 0.14118 0.06096 0.98827 0.0
C26 C 0.15517 0.06706 0.01743 0.0
C27 C 0.00309 0.07062 0.01289 0.0
C28 C 0.00222 0.10067 0.02741 0.0
C29 C 0.99613 0.10068 0.99240 0.0
C30 C 0.98768 0.11392 0.98253 0.0
C31 C 0.98530 0.12705 0.00774 0.0
C32 C 0.99145 0.12705 0.04273 0.0
C33 C 0.99990 0.11385 0.05258 0.0
C34 C 0.97669 0.14016 0.99810 0.0
C35 C 0.97421 0.15310 0.02356 0.0
O36 O 0.97126 0.98729 0.03333 0.0
O37 O 0.00957 0.08701 0.03743 0.0
O38 O 0.05515 0.03996 0.00659 0.0
H39 H 0.89548 0.89914 0.98656 0.0
H40 H 0.88699 0.90122 0.06410 0.0
H41 H 0.91443 0.93479 0.09290 0.0
H42 H 0.94780 0.97010 0.08974 0.0
H43 H 0.95248 0.95963 0.98147 0.0
H44 H 0.91915 0.92436 0.98461 0.0
H45 H 0.97966 0.99256 0.08401 0.0
H46 H 0.96238 0.00117 0.07036 0.0
H47 H 0.96827 0.04391 0.02269 0.0
H48 H 0.96285 0.03309 0.06347 0.0
H49 H 0.95825 0.01685 0.02780 0.0
H50 H 0.00375 0.99249 0.07237 0.0
H51 H 0.02326 0.01205 0.09836 0.0
H52 H 0.02996 0.00616 0.05878 0.0
H53 H 0.03942 0.08578 0.00174 0.0
H54 H 0.05194 0.07135 0.99281 0.0
H55 H 0.05691 0.08515 0.03140 0.0
H56 H 0.06386 0.06011 0.04761 0.0
H57 H 0.05339 0.03338 0.05752 0.0
H58 H 0.08450 0.05090 0.05617 0.0
H59 H 0.12224 0.06026 0.04807 0.0
H60 H 0.11102 0.04890 0.93882 0.0
H61 H 0.07329 0.03955 0.94694 0.0
H62 H 0.14691 0.06061 0.96335 0.0
H63 H 0.14939 0.06740 0.04232 0.0
H64 H 0.01177 0.07661 0.98983 0.0
H65 H 0.98656 0.06376 0.00786 0.0
H66 H 0.99776 0.09081 0.97387 0.0
H67 H 0.98312 0.11394 0.95663 0.0
H68 H 0.98966 0.13679 0.06135 0.0
H69 H 0.00436 0.11373 0.07850 0.0
H70 H 0.97212 0.14027 0.97222 0.0
H71 H 0.97879 0.15294 0.04941 0.0
C72 C 0.88753 0.36723 0.80981 0.0
C73 C 0.87331 0.34903 0.82956 0.0
C74 C 0.88127 0.34305 0.85851 0.0
C75 C 0.86725 0.32484 0.87845 0.0
C76 C 0.87537 0.31895 0.90732 0.0
C77 C 0.89749 0.33126 0.91613 0.0
C78 C 0.91147 0.34949 0.89626 0.0
C79 C 0.90337 0.35537 0.86743 0.0
C80 C 0.88946 0.30956 0.96416 0.0
C81 C 0.90079 0.30853 0.99337 0.0
C82 C 0.91050 0.29564 0.99203 0.0
C83 C 0.92496 0.29767 0.01876 0.0
C84 C 0.92779 0.31065 0.04850 0.0
C85 C 0.91653 0.32206 0.05109 0.0
C86 C 0.90304 0.32102 0.02345 0.0
C87 C 0.89307 0.33372 0.02479 0.0
C88 C 0.90706 0.28206 0.96281 0.0
C89 C 0.94243 0.31272 0.07503 0.0
C90 C 0.93684 0.28697 0.01571 0.0
C91 C 0.97098 0.29405 0.00804 0.0
C92 C 0.96212 0.27168 0.01309 0.0
C93 C 0.97582 0.26286 0.01482 0.0
C94 C 0.99836 0.27644 0.01149 0.0
C95 C 0.00720 0.29881 0.00617 0.0
C96 C 0.99349 0.30763 0.00445 0.0
C97 C 0.01201 0.26759 0.01355 0.0
C98 C 0.00306 0.24522 0.01901 0.0
C99 C 0.91959 0.33543 0.08032 0.0
C100 C 0.90594 0.33427 0.13355 0.0
C101 C 0.92139 0.35649 0.13608 0.0
C102 C 0.91961 0.36930 0.16259 0.0
C103 C 0.90236 0.35985 0.18642 0.0
C104 C 0.88696 0.33761 0.18390 0.0
C105 C 0.88876 0.32481 0.15744 0.0
C106 C 0.90040 0.37261 0.21277 0.0
C107 C 0.88300 0.36303 0.23628 0.0
O108 O 0.90552 0.32576 0.94452 0.0
O109 O 0.90709 0.32193 0.10670 0.0
O110 O 0.95763 0.30276 0.00741 0.0
H111 H 0.90387 0.37621 0.81669 0.0
H112 H 0.85696 0.34001 0.82276 0.0
H113 H 0.85088 0.31573 0.87185 0.0
H114 H 0.86503 0.30551 0.92216 0.0
H115 H 0.92783 0.35862 0.90293 0.0
H116 H 0.91372 0.36884 0.85267 0.0
H117 H 0.88200 0.29490 0.95034 0.0
H118 H 0.87813 0.31385 0.97191 0.0
H119 H 0.89952 0.34468 0.04566 0.0
H120 H 0.87644 0.32376 0.02816 0.0
H121 H 0.89596 0.34217 0.00146 0.0
H122 H 0.90180 0.28733 0.94161 0.0
H123 H 0.89526 0.26624 0.96886 0.0
H124 H 0.92138 0.28238 0.95640 0.0
H125 H 0.94328 0.32369 0.09404 0.0
H126 H 0.95767 0.31836 0.06412 0.0
H127 H 0.93723 0.29768 0.08635 0.0
H128 H 0.93683 0.27993 0.03949 0.0
H129 H 0.93037 0.27518 0.99598 0.0
H130 H 0.94543 0.26166 0.01569 0.0
H131 H 0.96930 0.24630 0.01863 0.0
H132 H 0.02388 0.30885 0.00359 0.0
H133 H 0.00010 0.32420 0.00010 0.0
H134 H 0.02871 0.27757 0.01107 0.0
H135 H 0.98636 0.23529 0.02147 0.0
H136 H 0.93581 0.34401 0.08796 0.0
H137 H 0.91425 0.34618 0.07423 0.0
H138 H 0.93403 0.36346 0.11823 0.0
H139 H 0.93100 0.38577 0.16451 0.0
H140 H 0.87421 0.33066 0.20157 0.0
H141 H 0.87730 0.30837 0.15539 0.0
H142 H 0.91176 0.38908 0.21484 0.0
H143 H 0.87167 0.34655 0.23411 0.0
C144 C 0.45915 0.15454 0.22818 0.0
C145 C 0.45501 0.13631 0.20780 0.0
C146 C 0.44095 0.13028 0.17876 0.0
C147 C 0.43661 0.11204 0.15819 0.0
C148 C 0.42247 0.10609 0.12922 0.0
C149 C 0.41269 0.11838 0.12095 0.0
C150 C 0.41708 0.13664 0.14144 0.0
C151 C 0.43120 0.14257 0.17036 0.0
C152 C 0.39874 0.09659 0.07224 0.0
C153 C 0.38628 0.09551 0.04310 0.0
C154 C 0.36361 0.08261 0.04417 0.0
C155 C 0.35110 0.08459 0.01762 0.0
C156 C 0.36121 0.09753 0.98827 0.0
C157 C 0.38394 0.10894 0.98590 0.0
C158 C 0.39649 0.10796 0.01339 0.0
C159 C 0.41922 0.12066 0.01232 0.0
C160 C 0.35350 0.06908 0.07299 0.0
C161 C 0.34858 0.09955 0.96192 0.0
C162 C 0.32847 0.07389 0.02048 0.0
C163 C 0.30148 0.08098 0.02864 0.0
C164 C 0.28783 0.05859 0.02289 0.0
C165 C 0.26526 0.04977 0.02104 0.0
C166 C 0.25639 0.06335 0.02494 0.0
C167 C 0.27005 0.08573 0.03096 0.0
C168 C 0.29262 0.09455 0.03280 0.0
C169 C 0.23382 0.05448 0.02276 0.0
C170 C 0.22028 0.03211 0.01660 0.0
C171 C 0.39422 0.12226 0.95706 0.0
C172 C 0.40653 0.12102 0.90368 0.0
C173 C 0.41341 0.14324 0.90189 0.0
C174 C 0.42797 0.15600 0.87572 0.0
C175 C 0.43564 0.14652 0.85148 0.0
C176 C 0.42870 0.12429 0.85326 0.0
C177 C 0.41413 0.11152 0.87938 0.0
C178 C 0.45034 0.15924 0.82547 0.0
C179 C 0.45805 0.14963 0.80154 0.0
O180 O 0.39902 0.11282 0.09247 0.0
O181 O 0.39306 0.10872 0.93020 0.0
O182 O 0.32359 0.08969 0.02940 0.0
H183 H 0.45181 0.16350 0.22169 0.0
H184 H 0.46232 0.12730 0.21422 0.0
H185 H 0.44384 0.10294 0.16440 0.0
H186 H 0.41925 0.09262 0.11393 0.0
H187 H 0.40987 0.14575 0.13517 0.0
H188 H 0.43443 0.15606 0.18558 0.0
H189 H 0.39152 0.08196 0.08560 0.0
H190 H 0.41437 0.10088 0.06452 0.0
H191 H 0.42370 0.13158 0.99180 0.0
H192 H 0.42583 0.11070 0.00852 0.0
H193 H 0.42490 0.12915 0.03590 0.0
H194 H 0.36414 0.07439 0.09429 0.0
H195 H 0.34939 0.05326 0.06640 0.0
H196 H 0.33952 0.06941 0.07954 0.0
H197 H 0.35868 0.11049 0.94322 0.0
H198 H 0.33903 0.10520 0.97312 0.0
H199 H 0.33862 0.08448 0.95014 0.0
H200 H 0.32134 0.06681 0.99651 0.0
H201 H 0.32317 0.06214 0.03983 0.0
H202 H 0.29445 0.04858 0.01987 0.0
H203 H 0.25513 0.03320 0.01671 0.0
H204 H 0.26346 0.09576 0.03396 0.0
H205 H 0.30277 0.11113 0.03712 0.0
H206 H 0.22716 0.06446 0.02565 0.0
H207 H 0.22698 0.02217 0.01372 0.0
H208 H 0.38660 0.13083 0.94980 0.0
H209 H 0.41039 0.13303 0.96340 0.0
H210 H 0.40783 0.15024 0.92005 0.0
H211 H 0.43313 0.17247 0.87436 0.0
H212 H 0.43442 0.11731 0.83528 0.0
H213 H 0.40907 0.09509 0.88088 0.0
H214 H 0.45553 0.17571 0.82395 0.0
H215 H 0.45282 0.13316 0.80316 0.0
C216 C 0.66412 0.59100 0.79540 0.0
C217 C 0.68238 0.59524 0.81557 0.0
C218 C 0.68839 0.60938 0.84465 0.0
C219 C 0.70665 0.61382 0.86501 0.0
C220 C 0.71258 0.62803 0.89401 0.0
C221 C 0.70026 0.63778 0.90253 0.0
C222 C 0.68198 0.63328 0.88225 0.0
C223 C 0.67606 0.61910 0.85329 0.0
C224 C 0.72206 0.65189 0.95106 0.0
C225 C 0.72313 0.66441 0.98029 0.0
C226 C 0.73596 0.68710 0.97923 0.0
C227 C 0.73396 0.69965 0.00592 0.0
C228 C 0.72108 0.68956 0.03536 0.0
C229 C 0.70974 0.66681 0.03770 0.0
C230 C 0.71074 0.65422 0.01008 0.0
C231 C 0.69811 0.63147 0.01115 0.0
C232 C 0.74943 0.69719 0.95031 0.0
C233 C 0.71903 0.70223 0.06184 0.0
C234 C 0.74458 0.72229 0.00309 0.0
C235 C 0.73739 0.74922 0.99526 0.0
C236 C 0.75975 0.76294 0.00010 0.0
C237 C 0.76850 0.78553 0.00273 0.0
C238 C 0.75487 0.79434 0.99990 0.0
C239 C 0.73252 0.78060 0.99326 0.0
C240 C 0.72377 0.75802 0.99135 0.0
C241 C 0.76367 0.81692 0.00134 0.0
C242 C 0.78602 0.83055 0.00731 0.0
C243 C 0.69648 0.65655 0.06663 0.0
C244 C 0.69782 0.64437 0.11990 0.0
C245 C 0.67561 0.63742 0.12193 0.0
C246 C 0.66291 0.62288 0.14816 0.0
C247 C 0.67246 0.61530 0.17220 0.0
C248 C 0.69468 0.62231 0.17018 0.0
C249 C 0.70737 0.63686 0.14400 0.0
C250 C 0.65981 0.60062 0.19827 0.0
C251 C 0.66947 0.59300 0.22200 0.0
O252 O 0.70580 0.65151 0.93105 0.0
O253 O 0.71005 0.65781 0.09332 0.0
O254 O 0.72874 0.72709 0.99444 0.0
H255 H 0.65514 0.59832 0.80208 0.0
H256 H 0.69141 0.58796 0.80898 0.0
H257 H 0.71578 0.60661 0.85862 0.0
H258 H 0.72607 0.63133 0.90915 0.0
H259 H 0.67284 0.64046 0.88871 0.0
H260 H 0.66256 0.61579 0.83823 0.0
H261 H 0.73667 0.65913 0.93756 0.0
H262 H 0.71784 0.63628 0.95871 0.0
H263 H 0.68722 0.62699 0.03177 0.0
H264 H 0.70810 0.62490 0.01475 0.0
H265 H 0.68961 0.62571 0.98763 0.0
H266 H 0.74413 0.68650 0.92900 0.0
H267 H 0.76526 0.70136 0.95673 0.0
H268 H 0.74905 0.71114 0.94389 0.0
H269 H 0.70815 0.69213 0.08061 0.0
H270 H 0.71333 0.71172 0.05080 0.0
H271 H 0.73409 0.71226 0.07350 0.0
H272 H 0.75167 0.72949 0.02703 0.0
H273 H 0.75631 0.72759 0.98363 0.0
H274 H 0.76980 0.75638 0.00364 0.0
H275 H 0.78505 0.79573 0.00692 0.0
H276 H 0.72245 0.78714 0.99045 0.0
H277 H 0.70720 0.74780 0.98718 0.0
H278 H 0.75365 0.82354 0.99863 0.0
H279 H 0.79599 0.82389 0.00999 0.0
H280 H 0.68788 0.66415 0.07408 0.0
H281 H 0.68575 0.64034 0.06030 0.0
H282 H 0.66857 0.64293 0.10391 0.0
H283 H 0.64645 0.61767 0.14970 0.0
H284 H 0.70170 0.61666 0.18801 0.0
H285 H 0.72380 0.64197 0.14233 0.0
H286 H 0.64334 0.59538 0.19997 0.0
H287 H 0.68594 0.59828 0.22021 0.0
O288 O 0.70879 0.38352 0.54820 0.0
O289 O 0.68620 0.35087 0.55002 0.0
O290 O 0.65886 0.39479 0.47843 0.0
O291 O 0.69186 0.41144 0.48358 0.0
O292 O 0.63375 0.35491 0.48586 0.0
O293 O 0.65147 0.34014 0.47392 0.0
O294 O 0.67297 0.37335 0.51526 0.0
C295 C 0.70169 0.36631 0.55974 0.0
C296 C 0.67576 0.40800 0.47106 0.0
C297 C 0.63713 0.34285 0.47003 0.0
Fe298 Fe 0.69886 0.39631 0.51629 0.0
Fe299 Fe 0.66953 0.34772 0.51176 0.0
Fe300 Fe 0.65042 0.37691 0.51661 0.0
C301 C 0.63867 0.34286 0.55960 0.0
O302 O 0.64611 0.33538 0.54173 0.0
O303 O 0.63970 0.35927 0.55561 0.0
C304 C 0.67833 0.41191 0.55782 0.0
O305 O 0.69434 0.41127 0.55222 0.0
O306 O 0.66219 0.40046 0.54499 0.0
O307 O 0.69254 0.35433 0.48166 0.0
O308 O 0.70943 0.38665 0.48008 0.0
C309 C 0.70566 0.37025 0.47159 0.0
C310 C 0.83107 0.35728 0.76331 0.0
C311 C 0.83612 0.36948 0.73247 0.0
C312 C 0.85785 0.38241 0.72228 0.0
C313 C 0.87454 0.38317 0.74296 0.0
C314 C 0.86950 0.37099 0.77381 0.0
C315 C 0.84776 0.35804 0.78399 0.0
C316 C 0.81943 0.36877 0.71184 0.0
C317 C 0.80275 0.36809 0.69122 0.0
C318 C 0.78609 0.36745 0.67062 0.0
C319 C 0.76943 0.36684 0.65004 0.0
C320 C 0.75278 0.36625 0.62947 0.0
C321 C 0.75790 0.37876 0.59898 0.0
C322 C 0.74126 0.37825 0.57848 0.0
C323 C 0.71950 0.36521 0.58847 0.0
C324 C 0.71438 0.35268 0.61895 0.0
C325 C 0.73102 0.35320 0.63945 0.0
H326 H 0.81498 0.34769 0.77084 0.0
H327 H 0.86158 0.39143 0.69944 0.0
H328 H 0.89063 0.39275 0.73542 0.0
H329 H 0.84403 0.34901 0.80682 0.0
H330 H 0.77401 0.38842 0.59159 0.0
H331 H 0.74505 0.38752 0.55592 0.0
H332 H 0.69828 0.34303 0.62633 0.0
H333 H 0.72723 0.34393 0.66202 0.0
C334 C 0.50377 0.20839 0.26931 0.0
C335 C 0.51040 0.20442 0.30176 0.0
C336 C 0.50125 0.18305 0.31397 0.0
C337 C 0.48547 0.16567 0.29375 0.0
C338 C 0.47884 0.16964 0.26132 0.0
C339 C 0.48799 0.19100 0.24909 0.0
C340 C 0.52613 0.22181 0.32202 0.0
C341 C 0.54185 0.23920 0.34232 0.0
C342 C 0.55754 0.25659 0.36266 0.0
C343 C 0.57321 0.27397 0.38304 0.0
C344 C 0.58885 0.29134 0.40345 0.0
C345 C 0.59516 0.28736 0.43616 0.0
C346 C 0.61075 0.30474 0.45663 0.0
C347 C 0.62002 0.32611 0.44438 0.0
C348 C 0.61373 0.33009 0.41165 0.0
C349 C 0.59814 0.31271 0.39118 0.0
H350 H 0.51055 0.22420 0.26026 0.0
H351 H 0.50617 0.18012 0.33798 0.0
H352 H 0.47870 0.14985 0.30279 0.0
H353 H 0.48309 0.19394 0.22507 0.0
H354 H 0.58829 0.27154 0.44524 0.0
H355 H 0.61541 0.30179 0.48086 0.0
H356 H 0.62061 0.34590 0.40257 0.0
H357 H 0.59348 0.31566 0.36695 0.0
C358 C 0.51112 0.20739 0.76510 0.0
C359 C 0.51117 0.20522 0.72847 0.0
C360 C 0.49553 0.18592 0.71190 0.0
C361 C 0.47986 0.16877 0.73197 0.0
C362 C 0.47981 0.17093 0.76861 0.0
C363 C 0.49544 0.19025 0.78518 0.0
C364 C 0.52688 0.22235 0.70840 0.0
C365 C 0.54261 0.23945 0.68832 0.0
C366 C 0.55835 0.25654 0.66823 0.0
C367 C 0.57411 0.27360 0.64812 0.0
C368 C 0.58988 0.29065 0.62802 0.0
C369 C 0.59013 0.28829 0.59145 0.0
C370 C 0.60595 0.30531 0.57135 0.0
C371 C 0.62152 0.32469 0.58782 0.0
C372 C 0.62126 0.32705 0.62439 0.0
C373 C 0.60544 0.31004 0.64449 0.0
H374 H 0.52269 0.22169 0.77737 0.0
H375 H 0.49556 0.18432 0.68477 0.0
H376 H 0.46828 0.15448 0.71970 0.0
H377 H 0.49540 0.19185 0.81230 0.0
H378 H 0.57861 0.27394 0.57925 0.0
H379 H 0.60614 0.30356 0.54428 0.0
H380 H 0.63277 0.34140 0.63658 0.0
H381 H 0.60525 0.31179 0.67157 0.0
C382 C 0.67612 0.55969 0.30918 0.0
C383 C 0.66513 0.53778 0.29845 0.0
C384 C 0.65257 0.53145 0.26758 0.0
C385 C 0.65097 0.54701 0.24746 0.0
C386 C 0.66194 0.56891 0.25819 0.0
C387 C 0.67452 0.57525 0.28905 0.0
C388 C 0.66668 0.52221 0.31863 0.0
C389 C 0.66820 0.50663 0.33882 0.0
C390 C 0.66969 0.49103 0.35902 0.0
C391 C 0.67113 0.47542 0.37925 0.0
C392 C 0.67256 0.45980 0.39949 0.0
C393 C 0.66125 0.43785 0.38903 0.0
C394 C 0.66260 0.42221 0.40933 0.0
C395 C 0.67527 0.42852 0.44009 0.0
C396 C 0.68660 0.45048 0.45052 0.0
C397 C 0.68525 0.46611 0.43022 0.0
H398 H 0.68544 0.56438 0.33201 0.0
H399 H 0.64444 0.51523 0.25964 0.0
H400 H 0.64166 0.54231 0.22461 0.0
H401 H 0.68266 0.59146 0.29699 0.0
H402 H 0.65186 0.43317 0.36627 0.0
H403 H 0.65421 0.40596 0.40161 0.0
H404 H 0.69600 0.45515 0.47328 0.0
H405 H 0.69363 0.48236 0.43795 0.0
C406 C 0.67545 0.56117 0.71120 0.0
C407 C 0.66444 0.53935 0.72156 0.0
C408 C 0.65168 0.53321 0.75193 0.0
C409 C 0.64995 0.54890 0.77197 0.0
C410 C 0.66096 0.57073 0.76163 0.0
C411 C 0.67371 0.57686 0.73124 0.0
C412 C 0.66623 0.52367 0.70157 0.0
C413 C 0.66803 0.50798 0.68162 0.0
C414 C 0.66985 0.49230 0.66172 0.0
C415 C 0.67170 0.47661 0.64187 0.0
C416 C 0.67356 0.46092 0.62203 0.0
C417 C 0.66284 0.43917 0.63280 0.0
C418 C 0.66477 0.42350 0.61305 0.0
C419 C 0.67740 0.42956 0.58253 0.0
C420 C 0.68809 0.45130 0.57175 0.0
C421 C 0.68617 0.46698 0.59151 0.0
H422 H 0.68488 0.56572 0.68870 0.0
H423 H 0.64353 0.51705 0.75959 0.0
H424 H 0.64050 0.54436 0.79446 0.0
H425 H 0.68185 0.59302 0.72357 0.0
H426 H 0.65350 0.43468 0.65540 0.0
H427 H 0.65685 0.40740 0.62103 0.0
H428 H 0.69743 0.45579 0.54915 0.0
H429 H 0.69409 0.48308 0.58353 0.0
C430 C 0.83677 0.35171 0.29571 0.0
C431 C 0.83830 0.37135 0.30652 0.0
C432 C 0.85651 0.39123 0.29740 0.0
C433 C 0.87320 0.39149 0.27751 0.0
C434 C 0.87167 0.37186 0.26672 0.0
C435 C 0.85345 0.35197 0.27582 0.0
C436 C 0.82165 0.37109 0.32649 0.0
C437 C 0.80501 0.37085 0.34651 0.0
C438 C 0.78839 0.37062 0.36657 0.0
C439 C 0.77180 0.37041 0.38669 0.0
C440 C 0.75522 0.37019 0.40683 0.0
C441 C 0.75698 0.38984 0.41813 0.0
C442 C 0.74044 0.38963 0.43839 0.0
C443 C 0.72215 0.36978 0.44734 0.0
C444 C 0.72038 0.35013 0.43602 0.0
C445 C 0.73692 0.35034 0.41576 0.0
H446 H 0.82328 0.33699 0.30244 0.0
H447 H 0.85764 0.40576 0.30538 0.0
H448 H 0.88668 0.40621 0.27076 0.0
H449 H 0.85232 0.33744 0.26782 0.0
H450 H 0.77053 0.40455 0.41151 0.0
H451 H 0.74175 0.40418 0.44677 0.0
H452 H 0.70683 0.33543 0.44263 0.0
H453 H 0.73561 0.33579 0.40738 0.0
C454 C 0.98376 0.18929 0.01816 0.0
C455 C 0.99701 0.21201 0.01925 0.0
C456 C 0.18260 0.05492 0.01454 0.0
C457 C 0.19227 0.04193 0.01473 0.0
C458 C 0.84432 0.86746 0.01030 0.0
C459 C 0.82168 0.85836 0.00972 0.0
