data_{}
_symmetry_space_group_name_H-M    P1
_symmetry_Int_Tables_number       1
_symmetry_cell_setting            triclinic
loop_
_symmetry_equiv_pos_as_xyz
'x, y, z'
_cell_length_a     65.945
_cell_length_b     37.266
_cell_length_c     68.194
_cell_angle_alpha  99.835
_cell_angle_beta   91.006
_cell_angle_gamma  106.402
loop_
_atom_site_label
_atom_site_type_symbol
_atom_site_fract_x
_atom_site_fract_y
_atom_site_fract_z
_atom_type_partial_charge
C0 C 0.07713 0.07033 0.67690 0.0
C1 C 0.07234 0.05473 0.65364 0.0
C2 C 0.08124 0.08485 0.64215 0.0
C3 C 0.07260 0.12006 0.65041 0.0
C4 C 0.07710 0.13737 0.67153 0.0
C5 C 0.06862 0.10284 0.68359 0.0
H6 H 0.09254 0.07910 0.67977 0.0
H7 H 0.05715 0.04502 0.65062 0.0
H8 H 0.07840 0.03387 0.64978 0.0
H9 H 0.09674 0.09276 0.64416 0.0
H10 H 0.05733 0.11183 0.64773 0.0
H11 H 0.07826 0.13974 0.64269 0.0
H12 H 0.09258 0.14603 0.67392 0.0
H13 H 0.05326 0.09399 0.68187 0.0
H14 H 0.07253 0.11229 0.69769 0.0
C15 C 0.07592 0.06304 0.42341 0.0
C16 C 0.07128 0.07375 0.44608 0.0
C17 C 0.08026 0.05291 0.45869 0.0
C18 C 0.07157 0.00870 0.44934 0.0
C19 C 0.07592 0.99598 0.42878 0.0
C20 C 0.06735 0.02166 0.41566 0.0
H21 H 0.09132 0.07026 0.42247 0.0
H22 H 0.05611 0.06769 0.44721 0.0
H23 H 0.07737 0.10092 0.45070 0.0
H24 H 0.09576 0.06110 0.45862 0.0
H25 H 0.05630 0.00107 0.45013 0.0
H26 H 0.07728 0.99492 0.45778 0.0
H27 H 0.09140 0.00340 0.42833 0.0
H28 H 0.05200 0.01457 0.41545 0.0
H29 H 0.07117 0.01622 0.40204 0.0
H30 H 0.96810 0.57272 0.81576 0.0
C31 C 0.98359 0.57960 0.78891 0.0
H32 H 0.99873 0.59191 0.79724 0.0
O33 O 0.05054 0.54987 0.74831 0.0
C34 C 0.05269 0.51393 0.74014 0.0
C35 C 0.06991 0.46595 0.74496 0.0
H36 H 0.07995 0.45643 0.75437 0.0
C37 C 0.06585 0.50049 0.75154 0.0
H38 H 0.07308 0.51704 0.76578 0.0
C39 C 0.03770 0.60420 0.75064 0.0
C40 C 0.03835 0.56514 0.74029 0.0
H41 H 0.02788 0.55111 0.72717 0.0
O42 O 0.06278 0.61273 0.78004 0.0
C43 C 0.06089 0.44378 0.72658 0.0
O44 O 0.03085 0.66291 0.74543 0.0
C45 C 0.04752 0.45683 0.71496 0.0
H46 H 0.04008 0.43996 0.70077 0.0
C47 C 0.04347 0.49163 0.72155 0.0
H48 H 0.03332 0.50029 0.71193 0.0
O49 O 0.99990 0.58235 0.75598 0.0
C50 C 0.06012 0.62588 0.76172 0.0
H51 H 0.06181 0.65681 0.76560 0.0
H52 H 0.07251 0.62269 0.75129 0.0
C53 C 0.08011 0.59905 0.78415 0.0
C54 C 0.10022 0.61055 0.77647 0.0
H55 H 0.10355 0.63143 0.76683 0.0
C56 C 0.11680 0.59649 0.78214 0.0
H57 H 0.13217 0.60655 0.77640 0.0
C58 C 0.11391 0.57160 0.79599 0.0
C59 C 0.09395 0.56093 0.80382 0.0
H60 H 0.09115 0.54218 0.81460 0.0
C61 C 0.07742 0.57455 0.79800 0.0
H62 H 0.06226 0.56601 0.80436 0.0
C63 C 0.03277 0.62733 0.73506 0.0
H64 H 0.01773 0.61135 0.72604 0.0
H65 H 0.04584 0.63237 0.72486 0.0
C66 C 0.03080 0.69244 0.73503 0.0
C67 C 0.03512 0.72887 0.74647 0.0
H68 H 0.03844 0.73319 0.76245 0.0
C69 C 0.03551 0.76003 0.73763 0.0
H70 H 0.03893 0.78729 0.74700 0.0
C71 C 0.03182 0.75618 0.71704 0.0
C72 C 0.02653 0.71929 0.70540 0.0
H73 H 0.02270 0.71504 0.68954 0.0
C74 C 0.02610 0.68756 0.71429 0.0
H75 H 0.02186 0.65965 0.70504 0.0
C76 C 0.02013 0.59884 0.76582 0.0
H77 H 0.02316 0.57986 0.77575 0.0
H78 H 0.02103 0.62692 0.77512 0.0
C79 C 0.98167 0.57401 0.76790 0.0
C80 C 0.96127 0.55885 0.75826 0.0
H81 H 0.95932 0.55421 0.74218 0.0
C82 C 0.94324 0.54958 0.76916 0.0
H83 H 0.92776 0.53884 0.76129 0.0
C84 C 0.94531 0.55385 0.79003 0.0
C85 C 0.96575 0.56889 0.79970 0.0
H86 H 0.96713 0.44720 0.27011 0.0
C87 C 0.98255 0.45641 0.29901 0.0
H88 H 0.99771 0.45990 0.29271 0.0
O89 O 0.04936 0.55586 0.34854 0.0
C90 C 0.05148 0.59402 0.35699 0.0
C91 C 0.06868 0.65995 0.35447 0.0
H92 H 0.07873 0.67993 0.34640 0.0
C93 C 0.06465 0.62119 0.34735 0.0
H94 H 0.07192 0.61219 0.33407 0.0
C95 C 0.03655 0.48816 0.34450 0.0
C96 C 0.03717 0.52788 0.35493 0.0
H97 H 0.02666 0.53098 0.36666 0.0
O98 O 0.06170 0.50581 0.31844 0.0
C99 C 0.05961 0.67269 0.37164 0.0
O100 O 0.02972 0.42232 0.34879 0.0
C101 C 0.04622 0.64568 0.38148 0.0
H102 H 0.03874 0.65478 0.39468 0.0
C103 C 0.04221 0.60669 0.37435 0.0
H104 H 0.03204 0.58743 0.38262 0.0
O105 O 0.99812 0.46994 0.33403 0.0
C106 C 0.05900 0.48987 0.33641 0.0
H107 H 0.06072 0.46072 0.33275 0.0
H108 H 0.07136 0.50596 0.34848 0.0
C109 C 0.07903 0.53756 0.31665 0.0
C110 C 0.09912 0.54701 0.32701 0.0
H111 H 0.10244 0.52959 0.33709 0.0
C112 C 0.11569 0.57834 0.32354 0.0
H113 H 0.13106 0.58431 0.33134 0.0
C114 C 0.11283 0.60024 0.30932 0.0
C115 C 0.09290 0.59013 0.29883 0.0
H116 H 0.09011 0.60595 0.28768 0.0
C117 C 0.07636 0.55926 0.30244 0.0
H118 H 0.06122 0.55201 0.29406 0.0
C119 C 0.03161 0.45988 0.35942 0.0
H120 H 0.01654 0.46017 0.36642 0.0
H121 H 0.04465 0.46846 0.37136 0.0
C122 C 0.02966 0.39273 0.35919 0.0
C123 C 0.03402 0.36083 0.34833 0.0
H124 H 0.03739 0.35999 0.33279 0.0
C125 C 0.03441 0.33007 0.35721 0.0
H126 H 0.03787 0.30639 0.34831 0.0
C127 C 0.03067 0.33004 0.37730 0.0
C128 C 0.02533 0.36140 0.38824 0.0
H129 H 0.02147 0.36164 0.40359 0.0
C130 C 0.02492 0.39269 0.37930 0.0
H131 H 0.02064 0.41616 0.38797 0.0
C132 C 0.01903 0.47523 0.32698 0.0
H133 H 0.02207 0.49738 0.31745 0.0
H134 H 0.01997 0.44811 0.31780 0.0
C135 C 0.98058 0.45998 0.31977 0.0
C136 C 0.96016 0.45386 0.32669 0.0
H137 H 0.95817 0.45645 0.34250 0.0
C138 C 0.94215 0.44435 0.31339 0.0
H139 H 0.92666 0.43895 0.31919 0.0
C140 C 0.94428 0.44227 0.29279 0.0
C141 C 0.96474 0.44855 0.28585 0.0
C142 C 0.76343 0.32975 0.15033 0.0
C143 C 0.75110 0.29673 0.13383 0.0
C144 C 0.73804 0.30473 0.11703 0.0
C145 C 0.72556 0.27198 0.10044 0.0
C146 C 0.71249 0.28027 0.08372 0.0
C147 C 0.71191 0.32125 0.08366 0.0
C148 C 0.72444 0.35396 0.10020 0.0
C149 C 0.73748 0.34569 0.11689 0.0
C150 C 0.69083 0.29579 0.05072 0.0
C151 C 0.68148 0.31248 0.03491 0.0
C152 C 0.65867 0.31509 0.03598 0.0
C153 C 0.65085 0.33841 0.02257 0.0
C154 C 0.66482 0.35500 0.00652 0.0
C155 C 0.68691 0.34915 0.00426 0.0
C156 C 0.69526 0.32791 0.01851 0.0
C157 C 0.71801 0.32479 0.01737 0.0
C158 C 0.64440 0.29721 0.05154 0.0
C159 C 0.65694 0.37857 0.99326 0.0
C160 C 0.62921 0.34566 0.02530 0.0
C161 C 0.61364 0.39765 0.03674 0.0
C162 C 0.59236 0.36751 0.02961 0.0
C163 C 0.57174 0.37915 0.02998 0.0
C164 C 0.57244 0.42089 0.03748 0.0
C165 C 0.59373 0.45098 0.04478 0.0
C166 C 0.61435 0.43934 0.04440 0.0
C167 C 0.55180 0.43245 0.03764 0.0
C168 C 0.53059 0.40223 0.03024 0.0
C169 C 0.70119 0.36633 0.98860 0.0
C170 C 0.70944 0.35042 0.95384 0.0
C171 C 0.72584 0.38996 0.95752 0.0
C172 C 0.74288 0.39989 0.94260 0.0
C173 C 0.74349 0.37020 0.92408 0.0
C174 C 0.72704 0.33070 0.92040 0.0
C175 C 0.70999 0.32080 0.93529 0.0
C176 C 0.76060 0.37982 0.90921 0.0
C177 C 0.76117 0.34979 0.89084 0.0
O178 O 0.69938 0.32970 0.06726 0.0
O179 O 0.69343 0.33999 0.96891 0.0
O180 O 0.63389 0.38648 0.03576 0.0
H181 H 0.76286 0.35996 0.15005 0.0
H182 H 0.75162 0.26649 0.13406 0.0
H183 H 0.72598 0.24166 0.10053 0.0
H184 H 0.70326 0.25612 0.07141 0.0
H185 H 0.72405 0.38430 0.10007 0.0
H186 H 0.74673 0.36988 0.12916 0.0
H187 H 0.67808 0.27259 0.05613 0.0
H188 H 0.70419 0.28435 0.04452 0.0
H189 H 0.72691 0.34407 0.00710 0.0
H190 H 0.71757 0.29409 0.01128 0.0
H191 H 0.72639 0.33405 0.03295 0.0
H192 H 0.65466 0.29285 0.06405 0.0
H193 H 0.63329 0.26849 0.04402 0.0
H194 H 0.63460 0.31662 0.05798 0.0
H195 H 0.66984 0.39006 0.98313 0.0
H196 H 0.65305 0.40330 0.00318 0.0
H197 H 0.64209 0.35989 0.98380 0.0
H198 H 0.62052 0.34152 0.01011 0.0
H199 H 0.61930 0.32576 0.03478 0.0
H200 H 0.59189 0.33664 0.02397 0.0
H201 H 0.55595 0.35689 0.02466 0.0
H202 H 0.59423 0.48186 0.05040 0.0
H203 H 0.63016 0.46159 0.04971 0.0
H204 H 0.55222 0.46331 0.04320 0.0
H205 H 0.53023 0.37139 0.02470 0.0
H206 H 0.70023 0.39611 0.98779 0.0
H207 H 0.71826 0.36743 0.99256 0.0
H208 H 0.72545 0.41174 0.97134 0.0
H209 H 0.75508 0.42913 0.94529 0.0
H210 H 0.72754 0.30877 0.90667 0.0
H211 H 0.69789 0.29149 0.93267 0.0
H212 H 0.77283 0.40903 0.91181 0.0
H213 H 0.74892 0.32061 0.88831 0.0
C214 C 0.30652 0.76362 0.94491 0.0
C215 C 0.30199 0.72565 0.95246 0.0
C216 C 0.31610 0.72208 0.96982 0.0
C217 C 0.31181 0.68424 0.97750 0.0
C218 C 0.32606 0.68093 0.99485 0.0
C219 C 0.34457 0.71543 0.00443 0.0
C220 C 0.34880 0.75325 0.99679 0.0
C221 C 0.33458 0.75656 0.97947 0.0
C222 C 0.35020 0.67584 0.02916 0.0
C223 C 0.36493 0.68179 0.04783 0.0
C224 C 0.38612 0.67235 0.04590 0.0
C225 C 0.40254 0.68524 0.06388 0.0
C226 C 0.39678 0.70322 0.08429 0.0
C227 C 0.37474 0.70927 0.08658 0.0
C228 C 0.35881 0.69860 0.06830 0.0
C229 C 0.33744 0.70756 0.07018 0.0
C230 C 0.39155 0.65303 0.02564 0.0
C231 C 0.41337 0.71632 0.10217 0.0
C232 C 0.42483 0.68071 0.06149 0.0
C233 C 0.46188 0.71919 0.06146 0.0
C234 C 0.46693 0.68099 0.05997 0.0
C235 C 0.49014 0.68021 0.06097 0.0
C236 C 0.50824 0.71763 0.06346 0.0
C237 C 0.50317 0.75582 0.06478 0.0
C238 C 0.47997 0.75660 0.06379 0.0
C239 C 0.53141 0.71673 0.06464 0.0
C240 C 0.53634 0.67844 0.06339 0.0
C241 C 0.36898 0.72799 0.10676 0.0
C242 C 0.35302 0.71140 0.13742 0.0
C243 C 0.35621 0.75432 0.14415 0.0
C244 C 0.34489 0.76846 0.16211 0.0
C245 C 0.33038 0.73963 0.17325 0.0
C246 C 0.32725 0.69672 0.16653 0.0
C247 C 0.33858 0.68259 0.14860 0.0
C248 C 0.31886 0.75356 0.19108 0.0
C249 C 0.30424 0.72446 0.20199 0.0
O250 O 0.35844 0.71260 0.02154 0.0
O251 O 0.36323 0.69739 0.11927 0.0
O252 O 0.43919 0.72004 0.06115 0.0
H253 H 0.32028 0.78892 0.95220 0.0
H254 H 0.28825 0.70028 0.94521 0.0
H255 H 0.29812 0.65872 0.97036 0.0
H256 H 0.32291 0.65299 0.00010 0.0
H257 H 0.36247 0.77879 0.00398 0.0
H258 H 0.33772 0.78452 0.97379 0.0
H259 H 0.35145 0.65064 0.01764 0.0
H260 H 0.33315 0.67176 0.03340 0.0
H261 H 0.33760 0.72639 0.08526 0.0
H262 H 0.32404 0.67997 0.06891 0.0
H263 H 0.33495 0.72310 0.05772 0.0
H264 H 0.38127 0.65732 0.01313 0.0
H265 H 0.38828 0.62125 0.02553 0.0
H266 H 0.40899 0.66578 0.02326 0.0
H267 H 0.40661 0.73065 0.11556 0.0
H268 H 0.42815 0.73740 0.09803 0.0
H269 H 0.41771 0.69071 0.10604 0.0
H270 H 0.42985 0.66945 0.07474 0.0
H271 H 0.42524 0.66065 0.04696 0.0
H272 H 0.45350 0.65333 0.05822 0.0
H273 H 0.49392 0.65195 0.05992 0.0
H274 H 0.51658 0.78351 0.06655 0.0
H275 H 0.47616 0.78486 0.06485 0.0
H276 H 0.54489 0.74434 0.06646 0.0
H277 H 0.52284 0.65088 0.06157 0.0
H278 H 0.38288 0.75261 0.11444 0.0
H279 H 0.35471 0.73865 0.10429 0.0
H280 H 0.36682 0.77554 0.13576 0.0
H281 H 0.34719 0.80022 0.16711 0.0
H282 H 0.31649 0.67544 0.17480 0.0
H283 H 0.33618 0.65084 0.14351 0.0
H284 H 0.32111 0.78530 0.19618 0.0
H285 H 0.30203 0.69275 0.19684 0.0
C286 C 0.92573 0.50812 0.82594 0.0
C287 C 0.90825 0.48486 0.83726 0.0
C288 C 0.88481 0.47570 0.82994 0.0
C289 C 0.87887 0.48966 0.81126 0.0
C290 C 0.89636 0.51287 0.79993 0.0
C291 C 0.91979 0.52214 0.80728 0.0
C292 C 0.86732 0.45268 0.84135 0.0
C293 C 0.84386 0.44388 0.83418 0.0
C294 C 0.82638 0.42178 0.84593 0.0
C295 C 0.80290 0.41339 0.83895 0.0
C296 C 0.78542 0.39156 0.85081 0.0
C297 C 0.79142 0.37802 0.86961 0.0
C298 C 0.81490 0.38624 0.87653 0.0
C299 C 0.83237 0.40810 0.86469 0.0
H300 H 0.94308 0.51497 0.83138 0.0
H301 H 0.91265 0.47442 0.85105 0.0
H302 H 0.86152 0.48282 0.80582 0.0
H303 H 0.89195 0.52318 0.78609 0.0
H304 H 0.87174 0.44216 0.85511 0.0
H305 H 0.83946 0.45373 0.82019 0.0
H306 H 0.79846 0.42332 0.82500 0.0
H307 H 0.76804 0.38544 0.84567 0.0
H308 H 0.81935 0.37615 0.89042 0.0
H309 H 0.84976 0.41417 0.86981 0.0
C310 C 0.89868 0.43846 0.28210 0.0
C311 C 0.87744 0.42499 0.26944 0.0
C312 C 0.87630 0.40487 0.24759 0.0
C313 C 0.89637 0.39806 0.23844 0.0
C314 C 0.91760 0.41147 0.25111 0.0
C315 C 0.91876 0.43171 0.27294 0.0
C316 C 0.85509 0.39166 0.23488 0.0
C317 C 0.85398 0.37192 0.21296 0.0
C318 C 0.83289 0.35969 0.20012 0.0
C319 C 0.83180 0.34041 0.17812 0.0
C320 C 0.81074 0.32849 0.16525 0.0
C321 C 0.79075 0.33574 0.17439 0.0
C322 C 0.79182 0.35484 0.19642 0.0
C323 C 0.81288 0.36680 0.20928 0.0
H324 H 0.89954 0.45344 0.29827 0.0
H325 H 0.86257 0.42993 0.27624 0.0
H326 H 0.89552 0.38309 0.22227 0.0
H327 H 0.93246 0.40640 0.24433 0.0
H328 H 0.84021 0.39651 0.24170 0.0
H329 H 0.86876 0.36637 0.20625 0.0
H330 H 0.84658 0.33495 0.17136 0.0
H331 H 0.80995 0.31431 0.14895 0.0
H332 H 0.77702 0.36013 0.20321 0.0
H333 H 0.81366 0.38092 0.22560 0.0
C334 C 0.14181 0.61442 0.83885 0.0
C335 C 0.15902 0.63626 0.85560 0.0
C336 C 0.18250 0.64772 0.85094 0.0
C337 C 0.18874 0.63750 0.82950 0.0
C338 C 0.17152 0.61573 0.81274 0.0
C339 C 0.14805 0.60415 0.81742 0.0
C340 C 0.19973 0.66930 0.86772 0.0
C341 C 0.22323 0.68040 0.86312 0.0
C342 C 0.24047 0.70104 0.88003 0.0
C343 C 0.26401 0.71171 0.87552 0.0
C344 C 0.28125 0.73206 0.89248 0.0
C345 C 0.27496 0.74185 0.91394 0.0
C346 C 0.25142 0.73135 0.91843 0.0
C347 C 0.23418 0.71096 0.90148 0.0
H348 H 0.12443 0.60586 0.84231 0.0
H349 H 0.15439 0.64392 0.87146 0.0
H350 H 0.20612 0.64606 0.82603 0.0
H351 H 0.17616 0.60819 0.79687 0.0
H352 H 0.19508 0.67706 0.88357 0.0
H353 H 0.22786 0.67334 0.84720 0.0
H354 H 0.26867 0.70455 0.85962 0.0
H355 H 0.29867 0.73987 0.88914 0.0
H356 H 0.24675 0.73867 0.93430 0.0
H357 H 0.21675 0.70321 0.90481 0.0
C358 C 0.16640 0.61919 0.30885 0.0
C359 C 0.18788 0.63392 0.30005 0.0
C360 C 0.18886 0.65010 0.28065 0.0
C361 C 0.16837 0.65169 0.27011 0.0
C362 C 0.14690 0.63703 0.27894 0.0
C363 C 0.14591 0.62073 0.29830 0.0
C364 C 0.21032 0.66455 0.27177 0.0
C365 C 0.21130 0.68033 0.25224 0.0
C366 C 0.23270 0.69379 0.24309 0.0
C367 C 0.23368 0.70910 0.22343 0.0
C368 C 0.25507 0.72224 0.21420 0.0
C369 C 0.27550 0.72020 0.22466 0.0
C370 C 0.27453 0.70507 0.24438 0.0
C371 C 0.25314 0.69189 0.25359 0.0
H372 H 0.16566 0.60714 0.32319 0.0
H373 H 0.20305 0.63284 0.30789 0.0
H374 H 0.16910 0.66374 0.25577 0.0
H375 H 0.13174 0.63824 0.27113 0.0
H376 H 0.22550 0.66357 0.27964 0.0
H377 H 0.19618 0.68204 0.24458 0.0
H378 H 0.21858 0.71070 0.21570 0.0
H379 H 0.25579 0.73348 0.19961 0.0
H380 H 0.28965 0.70364 0.25215 0.0
H381 H 0.25243 0.68071 0.26820 0.0
C382 C 0.53157 0.58343 0.05899 0.0
H383 H 0.53677 0.51346 0.06053 0.0
H384 H 0.54560 0.52746 0.04117 0.0
H385 H 0.50713 0.53317 0.05661 0.0
H386 H 0.51354 0.54296 0.03567 0.0
H387 H 0.52216 0.59941 0.05998 0.0
H388 H 0.53652 0.58310 0.07244 0.0
C389 C 0.53273 0.51587 0.04719 0.0
C390 C 0.51906 0.54254 0.04890 0.0
C391 C 0.09048 0.36435 0.71273 0.0
C392 C 0.06980 0.33174 0.70704 0.0
C393 C 0.04829 0.34030 0.70795 0.0
C394 C 0.04744 0.38145 0.71453 0.0
C395 C 0.07279 0.16687 0.68062 0.0
C396 C 0.08963 0.40551 0.71932 0.0
C397 C 0.07062 0.29056 0.70045 0.0
C398 C 0.07138 0.24936 0.69385 0.0
C399 C 0.07210 0.20813 0.68724 0.0
C400 C 0.06811 0.41406 0.72022 0.0
H401 H 0.10641 0.35802 0.71206 0.0
H402 H 0.03297 0.31616 0.70374 0.0
H403 H 0.03150 0.38777 0.71519 0.0
H404 H 0.10494 0.42965 0.72353 0.0
C405 C 0.02005 0.83844 0.69393 0.0
C406 C 0.04271 0.86464 0.69988 0.0
C407 C 0.05864 0.85078 0.71111 0.0
C408 C 0.05192 0.81072 0.71639 0.0
C409 C 0.06999 0.02502 0.67888 0.0
C410 C 0.01332 0.79837 0.69921 0.0
C411 C 0.04947 0.90472 0.69460 0.0
C412 C 0.05627 0.94481 0.68935 0.0
C413 C 0.06312 0.98490 0.68411 0.0
C414 C 0.02926 0.78451 0.71045 0.0
H415 H 0.00825 0.84870 0.68561 0.0
H416 H 0.07542 0.87018 0.71552 0.0
H417 H 0.06372 0.80046 0.72471 0.0
H418 H 0.99655 0.77897 0.69481 0.0
C419 C 0.04672 0.76313 0.38697 0.0
C420 C 0.06819 0.79384 0.39235 0.0
C421 C 0.08892 0.78255 0.39103 0.0
C422 C 0.08820 0.74057 0.38433 0.0
C423 C 0.07148 0.96196 0.41915 0.0
C424 C 0.04600 0.72115 0.38027 0.0
C425 C 0.06894 0.83583 0.39904 0.0
C426 C 0.06975 0.87785 0.40574 0.0
C427 C 0.07060 0.91990 0.41244 0.0
C428 C 0.06674 0.70987 0.37896 0.0
H429 H 0.03137 0.77148 0.38794 0.0
H430 H 0.10482 0.80527 0.39502 0.0
H431 H 0.10356 0.73223 0.38336 0.0
H432 H 0.03011 0.69842 0.37629 0.0
C433 C 0.05664 0.26068 0.38420 0.0
C434 C 0.04184 0.23313 0.39580 0.0
C435 C 0.02021 0.23857 0.40126 0.0
C436 C 0.01337 0.27154 0.39513 0.0
C437 C 0.06886 0.10097 0.42049 0.0
C438 C 0.04980 0.29367 0.37806 0.0
C439 C 0.04866 0.20013 0.40195 0.0
C440 C 0.05543 0.16710 0.40811 0.0
C441 C 0.06215 0.13404 0.41429 0.0
C442 C 0.02816 0.29910 0.38353 0.0
H443 H 0.07266 0.25666 0.38015 0.0
H444 H 0.00926 0.21818 0.40986 0.0
H445 H 0.99735 0.27555 0.39917 0.0
H446 H 0.06075 0.31406 0.36948 0.0
H447 H 0.08405 0.10726 0.55207 0.0
H448 H 0.10794 0.09005 0.51981 0.0
H449 H 0.10583 0.08171 0.48527 0.0
H450 H 0.04365 0.02744 0.48383 0.0
H451 H 0.04576 0.03576 0.51838 0.0
H452 H 0.06743 0.14097 0.55712 0.0
H453 H 0.04920 0.12226 0.56989 0.0
H454 H 0.07281 0.12582 0.57606 0.0
H455 H 0.10205 0.06824 0.55191 0.0
H456 H 0.05487 0.02613 0.57882 0.0
H457 H 0.05241 0.03839 0.61302 0.0
H458 H 0.10902 0.11870 0.61817 0.0
H459 H 0.10772 0.10860 0.58378 0.0
H460 H 0.10339 0.00942 0.55695 0.0
H461 H 0.08329 0.98525 0.56567 0.0
H462 H 0.08813 0.97312 0.54349 0.0
C463 C 0.08008 0.08052 0.54612 0.0
C464 C 0.07707 0.06373 0.52252 0.0
C465 C 0.09506 0.07750 0.51260 0.0
C466 C 0.09379 0.07251 0.49191 0.0
C467 C 0.07453 0.05374 0.48113 0.0
C468 C 0.05655 0.03999 0.49105 0.0
C469 C 0.05780 0.04497 0.51174 0.0
C470 C 0.06268 0.12146 0.56501 0.0
C471 C 0.08856 0.05370 0.55526 0.0
C472 C 0.08414 0.06142 0.57808 0.0
C473 C 0.06605 0.04377 0.58683 0.0
C474 C 0.06423 0.05182 0.60732 0.0
C475 C 0.08042 0.08039 0.61927 0.0
C476 C 0.09778 0.10039 0.61053 0.0
C477 C 0.09773 0.09194 0.58996 0.0
C478 C 0.08888 0.99434 0.55397 0.0
O479 O 0.06050 0.08375 0.55253 0.0
O480 O 0.07719 0.01633 0.54787 0.0
