data_{}
_symmetry_space_group_name_H-M    P1
_symmetry_Int_Tables_number       1
_symmetry_cell_setting            triclinic
loop_
_symmetry_equiv_pos_as_xyz
'x, y, z'
_cell_length_a     68.788
_cell_length_b     73.564
_cell_length_c     33.429
_cell_angle_alpha  90.390
_cell_angle_beta   90.129
_cell_angle_gamma  120.451
loop_
_atom_site_label
_atom_site_type_symbol
_atom_site_fract_x
_atom_site_fract_y
_atom_site_fract_z
_atom_type_partial_charge
C0 C 0.05840 0.07374 0.01244 0.0
Ag1 Ag 0.00374 0.03070 0.99498 0.0
C2 C 0.99872 0.98348 0.00718 0.0
C3 C 0.97067 0.05113 0.01428 0.0
N4 N 0.04121 0.05868 0.01432 0.0
N5 N 0.00103 0.99990 0.99990 0.0
N6 N 0.98174 0.04361 0.01423 0.0
C7 C 0.66579 0.20113 0.75215 0.0
C8 C 0.64896 0.18202 0.77692 0.0
C9 C 0.65745 0.17511 0.81314 0.0
C10 C 0.64084 0.15598 0.83815 0.0
C11 C 0.64951 0.14917 0.87428 0.0
C12 C 0.67475 0.16147 0.88524 0.0
C13 C 0.69132 0.18062 0.86033 0.0
C14 C 0.68267 0.18742 0.82426 0.0
C15 C 0.66460 0.13824 0.94539 0.0
C16 C 0.67711 0.13656 0.98192 0.0
C17 C 0.68713 0.12205 0.98028 0.0
C18 C 0.70329 0.12354 0.01370 0.0
C19 C 0.70719 0.13752 0.05085 0.0
C20 C 0.69537 0.15050 0.05406 0.0
C21 C 0.68034 0.15004 0.01949 0.0
C22 C 0.67002 0.16434 0.02114 0.0
C23 C 0.68252 0.10745 0.94377 0.0
C24 C 0.72354 0.13905 0.08401 0.0
C25 C 0.71583 0.11131 0.00990 0.0
C26 C 0.75410 0.11735 0.00010 0.0
C27 C 0.74297 0.09344 0.00666 0.0
C28 C 0.75765 0.08317 0.00884 0.0
C29 C 0.78343 0.09684 0.00462 0.0
C30 C 0.79453 0.12075 0.99789 0.0
C31 C 0.77984 0.13101 0.99572 0.0
C32 C 0.79806 0.08654 0.00721 0.0
C33 C 0.78683 0.06264 0.01412 0.0
C34 C 0.69953 0.16488 0.09057 0.0
C35 C 0.68435 0.16428 0.15717 0.0
C36 C 0.70277 0.18770 0.16026 0.0
C37 C 0.70155 0.20172 0.19338 0.0
C38 C 0.68188 0.19228 0.22322 0.0
C39 C 0.66351 0.16884 0.22014 0.0
C40 C 0.66475 0.15482 0.18708 0.0
C41 C 0.68045 0.20625 0.25613 0.0
C42 C 0.66061 0.19669 0.28558 0.0
O43 O 0.68335 0.15508 0.92077 0.0
O44 O 0.68490 0.15080 0.12362 0.0
O45 O 0.73980 0.12748 0.99990 0.0
H46 H 0.68443 0.21009 0.76072 0.0
H47 H 0.63031 0.17301 0.76845 0.0
H48 H 0.62217 0.14688 0.82993 0.0
H49 H 0.63726 0.13504 0.89288 0.0
H50 H 0.70999 0.18975 0.86863 0.0
H51 H 0.69492 0.20157 0.80575 0.0
H52 H 0.65547 0.12266 0.92814 0.0
H53 H 0.65228 0.14347 0.95507 0.0
H54 H 0.67782 0.17594 0.04721 0.0
H55 H 0.65100 0.15432 0.02540 0.0
H56 H 0.67371 0.17340 0.99194 0.0
H57 H 0.67698 0.11345 0.91724 0.0
H58 H 0.66851 0.09082 0.95140 0.0
H59 H 0.69841 0.10710 0.93574 0.0
H60 H 0.72512 0.15094 0.10776 0.0
H61 H 0.74077 0.14444 0.07035 0.0
H62 H 0.71690 0.12293 0.09822 0.0
H63 H 0.71541 0.10365 0.03966 0.0
H64 H 0.70797 0.09881 0.98527 0.0
H65 H 0.72389 0.08336 0.00995 0.0
H66 H 0.74946 0.06547 0.01366 0.0
H67 H 0.81361 0.13085 0.99462 0.0
H68 H 0.78803 0.14873 0.99092 0.0
H69 H 0.81715 0.09657 0.00408 0.0
H70 H 0.76774 0.05264 0.01723 0.0
H71 H 0.71802 0.17342 0.10010 0.0
H72 H 0.69424 0.17685 0.08293 0.0
H73 H 0.71719 0.19467 0.13790 0.0
H74 H 0.71514 0.21908 0.19572 0.0
H75 H 0.64896 0.16190 0.24227 0.0
H76 H 0.65109 0.13750 0.18457 0.0
H77 H 0.69401 0.22362 0.25867 0.0
H78 H 0.64709 0.17931 0.28293 0.0
C79 C 0.51534 0.40181 0.28411 0.0
C80 C 0.51163 0.38274 0.25872 0.0
C81 C 0.49556 0.37563 0.22239 0.0
C82 C 0.49161 0.35655 0.19676 0.0
C83 C 0.47544 0.34953 0.16053 0.0
C84 C 0.46325 0.36157 0.15009 0.0
C85 C 0.46725 0.38068 0.17562 0.0
C86 C 0.48339 0.38769 0.21180 0.0
C87 C 0.44829 0.33823 0.08926 0.0
C88 C 0.43378 0.33632 0.05279 0.0
C89 C 0.40808 0.32158 0.05414 0.0
C90 C 0.39332 0.32283 0.02089 0.0
C91 C 0.40434 0.33680 0.98413 0.0
C92 C 0.43021 0.35002 0.98115 0.0
C93 C 0.44494 0.34980 0.01558 0.0
C94 C 0.47073 0.36434 0.01422 0.0
C95 C 0.39710 0.30700 0.09024 0.0
C96 C 0.38944 0.33809 0.95114 0.0
C97 C 0.36753 0.31036 0.02448 0.0
C98 C 0.33553 0.31596 0.03458 0.0
C99 C 0.32097 0.29201 0.02748 0.0
C100 C 0.29512 0.28148 0.02517 0.0
C101 C 0.28390 0.29492 0.02994 0.0
C102 C 0.29848 0.31886 0.03737 0.0
C103 C 0.32433 0.32939 0.03968 0.0
C104 C 0.25807 0.28435 0.02721 0.0
C105 C 0.24362 0.26042 0.01960 0.0
C106 C 0.44140 0.36440 0.94504 0.0
C107 C 0.45586 0.36390 0.87830 0.0
C108 C 0.46253 0.38724 0.87596 0.0
C109 C 0.47875 0.40132 0.84319 0.0
C110 C 0.48831 0.39203 0.81295 0.0
C111 C 0.48158 0.36867 0.81528 0.0
C112 C 0.46534 0.35458 0.84799 0.0
C113 C 0.50471 0.40607 0.78037 0.0
C114 C 0.51431 0.39665 0.75052 0.0
O115 O 0.44761 0.35497 0.11447 0.0
O116 O 0.44088 0.35036 0.91151 0.0
O117 O 0.36084 0.32635 0.03553 0.0
H118 H 0.50619 0.41058 0.27592 0.0
H119 H 0.52074 0.37393 0.26681 0.0
H120 H 0.50063 0.34763 0.20459 0.0
H121 H 0.47251 0.33543 0.14146 0.0
H122 H 0.45826 0.38962 0.16771 0.0
H123 H 0.48633 0.40180 0.23076 0.0
H124 H 0.44075 0.32268 0.10603 0.0
H125 H 0.46629 0.34364 0.07961 0.0
H126 H 0.47529 0.37588 0.98851 0.0
H127 H 0.47908 0.35449 0.00954 0.0
H128 H 0.47685 0.37345 0.04368 0.0
H129 H 0.40921 0.31314 0.11687 0.0
H130 H 0.39328 0.29042 0.08207 0.0
H131 H 0.38074 0.30645 0.09839 0.0
H132 H 0.40057 0.35000 0.92770 0.0
H133 H 0.37793 0.34331 0.96508 0.0
H134 H 0.37873 0.32193 0.93646 0.0
H135 H 0.35963 0.30261 0.99451 0.0
H136 H 0.36206 0.29791 0.04873 0.0
H137 H 0.32932 0.28211 0.02378 0.0
H138 H 0.28430 0.26376 0.01982 0.0
H139 H 0.29016 0.32879 0.04106 0.0
H140 H 0.33518 0.34713 0.04501 0.0
H141 H 0.24966 0.29422 0.03076 0.0
H142 H 0.25208 0.25060 0.01607 0.0
H143 H 0.43196 0.37275 0.93588 0.0
H144 H 0.45964 0.37653 0.95295 0.0
H145 H 0.45557 0.39410 0.89862 0.0
H146 H 0.48376 0.41863 0.84141 0.0
H147 H 0.48869 0.36183 0.79285 0.0
H148 H 0.46044 0.33732 0.84994 0.0
H149 H 0.50976 0.42338 0.77839 0.0
H150 H 0.50923 0.37934 0.75262 0.0
C151 C 0.88912 0.55721 0.74192 0.0
C152 C 0.91021 0.56279 0.76717 0.0
C153 C 0.91631 0.57772 0.80350 0.0
C154 C 0.93740 0.58352 0.82899 0.0
C155 C 0.94339 0.59852 0.86522 0.0
C156 C 0.92831 0.60771 0.87581 0.0
C157 C 0.90720 0.60186 0.85041 0.0
C158 C 0.90122 0.58689 0.81424 0.0
C159 C 0.95289 0.62368 0.93650 0.0
C160 C 0.95331 0.63661 0.97301 0.0
C161 C 0.96682 0.66082 0.97163 0.0
C162 C 0.96364 0.67359 0.00494 0.0
C163 C 0.94922 0.66232 0.04178 0.0
C164 C 0.93745 0.63815 0.04477 0.0
C165 C 0.93947 0.62529 0.01029 0.0
C166 C 0.92618 0.60103 0.01168 0.0
C167 C 0.98194 0.67213 0.93545 0.0
C168 C 0.94598 0.67521 0.07484 0.0
C169 C 0.97458 0.69759 0.00134 0.0
C170 C 0.96436 0.72482 0.99141 0.0
C171 C 0.98964 0.74044 0.99836 0.0
C172 C 0.99839 0.76427 0.00010 0.0
C173 C 0.98184 0.77242 0.99606 0.0
C174 C 0.95657 0.75677 0.98877 0.0
C175 C 0.94783 0.73295 0.98645 0.0
C176 C 0.99064 0.79624 0.99880 0.0
C177 C 0.01591 0.81176 0.00627 0.0
C178 C 0.92259 0.62669 0.08096 0.0
C179 C 0.92496 0.61422 0.14764 0.0
C180 C 0.89941 0.60557 0.15015 0.0
C181 C 0.88550 0.58975 0.18298 0.0
C182 C 0.89717 0.58258 0.21311 0.0
C183 C 0.92274 0.59129 0.21061 0.0
C184 C 0.93664 0.60713 0.17785 0.0
C185 C 0.88333 0.56661 0.24574 0.0
C186 C 0.89515 0.55942 0.27548 0.0
O187 O 0.93388 0.62220 0.91143 0.0
O188 O 0.93840 0.62889 0.11437 0.0
O189 O 0.95571 0.70147 0.99045 0.0
H190 H 0.87810 0.56413 0.75021 0.0
H191 H 0.92127 0.55591 0.75898 0.0
H192 H 0.94856 0.57672 0.82105 0.0
H193 H 0.95896 0.60282 0.88418 0.0
H194 H 0.89602 0.60863 0.85843 0.0
H195 H 0.88563 0.58258 0.79537 0.0
H196 H 0.96952 0.63212 0.91963 0.0
H197 H 0.94898 0.60733 0.94613 0.0
H198 H 0.91372 0.59567 0.03746 0.0
H199 H 0.93833 0.59495 0.01624 0.0
H200 H 0.91662 0.59454 0.98227 0.0
H201 H 0.97645 0.66078 0.90882 0.0
H202 H 0.00010 0.67749 0.94349 0.0
H203 H 0.98057 0.68646 0.92735 0.0
H204 H 0.93389 0.66408 0.09833 0.0
H205 H 0.93867 0.68459 0.06097 0.0
H206 H 0.96294 0.68653 0.08942 0.0
H207 H 0.98239 0.70547 0.03128 0.0
H208 H 0.98796 0.70385 0.97701 0.0
H209 H 0.00185 0.73436 0.00195 0.0
H210 H 0.01710 0.77587 0.00592 0.0
H211 H 0.94435 0.76282 0.98520 0.0
H212 H 0.92911 0.72132 0.98123 0.0
H213 H 0.97847 0.80237 0.99536 0.0
H214 H 0.02804 0.80558 0.00968 0.0
H215 H 0.91201 0.63392 0.09022 0.0
H216 H 0.91110 0.60929 0.07309 0.0
H217 H 0.89080 0.61078 0.12757 0.0
H218 H 0.86656 0.58328 0.18489 0.0
H219 H 0.93133 0.58595 0.23296 0.0
H220 H 0.95554 0.61349 0.17577 0.0
H221 H 0.86439 0.56011 0.24784 0.0
H222 H 0.91409 0.56596 0.27326 0.0
O223 O 0.71165 0.36477 0.55529 0.0
O224 O 0.67360 0.34722 0.55788 0.0
O225 O 0.70963 0.42379 0.46889 0.0
O226 O 0.73466 0.41304 0.47480 0.0
O227 O 0.66382 0.40006 0.47852 0.0
O228 O 0.65395 0.36651 0.46326 0.0
O229 O 0.69225 0.38571 0.51467 0.0
C230 C 0.69286 0.35111 0.56981 0.0
C231 C 0.72706 0.42378 0.45942 0.0
C232 C 0.65285 0.38283 0.45864 0.0
Fe233 Fe 0.72162 0.38888 0.51557 0.0
Fe234 Fe 0.66614 0.35882 0.51030 0.0
Fe235 Fe 0.68983 0.41056 0.51675 0.0
C236 C 0.65325 0.38141 0.57064 0.0
O237 O 0.64785 0.36582 0.54815 0.0
O238 O 0.66966 0.39971 0.56567 0.0
C239 C 0.73156 0.42598 0.56790 0.0
O240 O 0.73514 0.41056 0.56062 0.0
O241 O 0.71607 0.42736 0.55209 0.0
O242 O 0.67868 0.34548 0.47228 0.0
O243 O 0.71490 0.36787 0.47008 0.0
C244 C 0.69779 0.35211 0.45950 0.0
C245 C 0.66410 0.22399 0.70835 0.0
C246 C 0.66888 0.24447 0.68766 0.0
C247 C 0.67366 0.26497 0.66694 0.0
C248 C 0.67850 0.28546 0.64622 0.0
C249 C 0.68345 0.30598 0.62542 0.0
C250 C 0.68845 0.32650 0.60461 0.0
C251 C 0.54109 0.40392 0.32615 0.0
C252 C 0.55891 0.40020 0.34632 0.0
C253 C 0.57674 0.39649 0.36652 0.0
C254 C 0.59460 0.39281 0.38660 0.0
C255 C 0.61255 0.38918 0.40656 0.0
C256 C 0.63052 0.38558 0.42641 0.0
C257 C 0.54195 0.40297 0.70872 0.0
C258 C 0.55951 0.39906 0.68810 0.0
C259 C 0.57708 0.39513 0.66746 0.0
C260 C 0.59465 0.39121 0.64696 0.0
C261 C 0.61228 0.38728 0.62662 0.0
C262 C 0.62993 0.38336 0.60639 0.0
C263 C 0.86385 0.53146 0.31912 0.0
C264 C 0.84213 0.51476 0.33969 0.0
C265 C 0.82039 0.49805 0.36029 0.0
C266 C 0.79871 0.48133 0.38090 0.0
C267 C 0.77706 0.46455 0.40162 0.0
C268 C 0.75547 0.44775 0.42235 0.0
C269 C 0.86685 0.53286 0.69967 0.0
C270 C 0.84490 0.51591 0.67938 0.0
C271 C 0.82294 0.49894 0.65908 0.0
C272 C 0.80096 0.48200 0.63889 0.0
C273 C 0.77890 0.46504 0.61883 0.0
C274 C 0.75682 0.44810 0.59887 0.0
C275 C 0.66431 0.22330 0.32528 0.0
C276 C 0.67039 0.24435 0.34579 0.0
C277 C 0.67647 0.26541 0.36633 0.0
C278 C 0.68248 0.28644 0.38681 0.0
C279 C 0.68840 0.30747 0.40727 0.0
C280 C 0.69425 0.32848 0.42769 0.0
C281 C 0.90130 0.05563 0.01469 0.0
C282 C 0.90309 0.07693 0.02434 0.0
C283 C 0.88066 0.07685 0.02463 0.0
C284 C 0.85938 0.05548 0.01528 0.0
C285 C 0.86126 0.04067 0.04537 0.0
C286 C 0.88369 0.04075 0.04506 0.0
C287 C 0.88787 0.04909 0.97509 0.0
C288 C 0.86544 0.04901 0.97541 0.0
C289 C 0.92373 0.05572 0.01435 0.0
C290 C 0.94618 0.05584 0.01398 0.0
C291 C 0.83696 0.05541 0.01557 0.0
C292 C 0.81453 0.05534 0.01583 0.0
H293 H 0.92028 0.09145 0.03069 0.0
H294 H 0.88057 0.09201 0.03150 0.0
H295 H 0.84657 0.03056 0.06604 0.0
H296 H 0.88640 0.03022 0.06645 0.0
H297 H 0.89472 0.04471 0.94797 0.0
H298 H 0.85452 0.04435 0.94725 0.0
C299 C 0.12798 0.14694 0.01522 0.0
C300 C 0.14236 0.15352 0.05375 0.0
C301 C 0.16301 0.17600 0.05424 0.0
C302 C 0.16656 0.18896 0.01616 0.0
C303 C 0.14353 0.18739 0.01061 0.0
C304 C 0.12288 0.16491 0.01010 0.0
C305 C 0.14560 0.15170 0.98247 0.0
C306 C 0.16625 0.17419 0.98297 0.0
C307 C 0.10735 0.12445 0.01473 0.0
C308 C 0.08673 0.10195 0.01425 0.0
C309 C 0.18722 0.21144 0.01666 0.0
C310 C 0.20788 0.23391 0.01715 0.0
H311 H 0.13742 0.14198 0.07957 0.0
H312 H 0.17451 0.18204 0.08168 0.0
H313 H 0.14258 0.20233 0.00719 0.0
H314 H 0.10523 0.16242 0.00612 0.0
H315 H 0.14288 0.13893 0.95987 0.0
H316 H 0.18005 0.17895 0.95969 0.0
C317 C 0.00663 0.91893 0.01062 0.0
C318 C 0.03126 0.92399 0.00954 0.0
C319 C 0.03457 0.90479 0.00904 0.0
C320 C 0.01281 0.88306 0.00965 0.0
C321 C 0.99990 0.88446 0.97437 0.0
C322 C 0.99590 0.90365 0.97488 0.0
C323 C 0.99704 0.90414 0.04674 0.0
C324 C 0.00010 0.88494 0.04622 0.0
C325 C 0.00334 0.93813 0.01116 0.0
C326 C 0.00010 0.95735 0.01174 0.0
C327 C 0.01613 0.86386 0.00916 0.0
C328 C 0.01944 0.84467 0.00871 0.0
H329 H 0.04564 0.94108 0.00916 0.0
H330 H 0.05230 0.90721 0.00826 0.0
H331 H 0.99232 0.87174 0.95003 0.0
H332 H 0.98602 0.90582 0.94981 0.0
H333 H 0.98818 0.90775 0.07165 0.0
H334 H 0.99373 0.87324 0.07190 0.0
