data_{}
_symmetry_space_group_name_H-M    P1
_symmetry_Int_Tables_number       1
_symmetry_cell_setting            triclinic
loop_
_symmetry_equiv_pos_as_xyz
'x, y, z'
_cell_length_a     41.126
_cell_length_b     39.268
_cell_length_c     60.768
_cell_angle_alpha  89.322
_cell_angle_beta   91.417
_cell_angle_gamma  89.478
loop_
_atom_site_label
_atom_site_type_symbol
_atom_site_fract_x
_atom_site_fract_y
_atom_site_fract_z
_atom_type_partial_charge
C0 C 0.99144 0.03747 0.03179 0.0
C1 C 0.02349 0.03281 0.01953 0.0
C2 C 0.05566 0.02714 0.03263 0.0
C3 C 0.05579 0.02612 0.05797 0.0
C4 C 0.02375 0.03077 0.07022 0.0
C5 C 0.99158 0.03645 0.05713 0.0
C6 C 0.02488 0.03438 0.99422 0.0
C7 C 0.02585 0.06834 0.98132 0.0
C8 C 0.02546 0.06838 0.95597 0.0
C9 C 0.02411 0.03447 0.94353 0.0
C10 C 0.02314 0.00010 0.95643 0.0
C11 C 0.02352 0.00010 0.98177 0.0
H12 H 0.96763 0.04167 0.02210 0.0
H13 H 0.07938 0.02369 0.02356 0.0
H14 H 0.02685 0.09344 0.99053 0.0
H15 H 0.02281 0.97534 0.99132 0.0
H16 H 0.02385 0.03002 0.08898 0.0
H17 H 0.02577 0.03617 0.92480 0.0
Si18 Si 0.53206 0.53529 0.51343 0.0
C19 C 0.60635 0.55918 0.55801 0.0
C20 C 0.50437 0.60599 0.46500 0.0
C21 C 0.50637 0.57758 0.47893 0.0
C22 C 0.53226 0.57336 0.49464 0.0
C23 C 0.55660 0.59784 0.49491 0.0
C24 C 0.55509 0.62578 0.48054 0.0
C25 C 0.52900 0.62992 0.46597 0.0
C26 C 0.50225 0.44693 0.48129 0.0
C27 C 0.50432 0.47346 0.49617 0.0
C28 C 0.52828 0.49772 0.49479 0.0
C29 C 0.55083 0.49517 0.47790 0.0
C30 C 0.54940 0.46900 0.46299 0.0
C31 C 0.52540 0.44486 0.46454 0.0
H32 H 0.65171 0.53946 0.55942 0.0
C33 C 0.44498 0.56619 0.54026 0.0
C34 C 0.43925 0.54127 0.55591 0.0
C35 C 0.46114 0.51484 0.55938 0.0
C36 C 0.48899 0.51342 0.54726 0.0
C37 C 0.49567 0.53802 0.53133 0.0
H38 H 0.52789 0.64897 0.45671 0.0
C39 C 0.47295 0.56402 0.52812 0.0
H40 H 0.49041 0.56103 0.47792 0.0
H41 H 0.52445 0.42718 0.45454 0.0
H42 H 0.42053 0.54238 0.56414 0.0
C43 C 0.63151 0.53782 0.55228 0.0
H44 H 0.57410 0.59547 0.50482 0.0
H45 H 0.48926 0.47490 0.50729 0.0
H46 H 0.56702 0.51145 0.47674 0.0
C47 C 0.62682 0.51365 0.53575 0.0
C48 C 0.59689 0.51233 0.52460 0.0
C49 C 0.57071 0.53396 0.53003 0.0
C50 C 0.57652 0.55667 0.54688 0.0
H51 H 0.50371 0.49557 0.54977 0.0
H52 H 0.47669 0.58061 0.51744 0.0
H53 H 0.59408 0.49682 0.51328 0.0
H54 H 0.55966 0.57102 0.55098 0.0
C55 C 0.83857 0.42958 0.64974 0.0
C56 C 0.85453 0.39434 0.64680 0.0
C57 C 0.88932 0.38761 0.65583 0.0
C58 C 0.90566 0.35253 0.65296 0.0
C59 C 0.94053 0.34609 0.66201 0.0
C60 C 0.95896 0.37475 0.67387 0.0
C61 C 0.94259 0.40975 0.67680 0.0
C62 C 0.90778 0.41619 0.66776 0.0
C63 C 0.00333 0.33173 0.68178 0.0
C64 C 0.03601 0.33105 0.69451 0.0
C65 C 0.06746 0.33963 0.68257 0.0
C66 C 0.09893 0.34540 0.69615 0.0
C67 C 0.09987 0.33854 0.72117 0.0
C68 C 0.06897 0.32677 0.73273 0.0
C69 C 0.03698 0.32309 0.71938 0.0
C70 C 0.00544 0.31410 0.73120 0.0
C71 C 0.06677 0.34523 0.65740 0.0
C72 C 0.13141 0.34465 0.73466 0.0
C73 C 0.12945 0.35848 0.68485 0.0
C74 C 0.16385 0.40928 0.68296 0.0
C75 C 0.18575 0.38703 0.66870 0.0
C76 C 0.21864 0.40070 0.66112 0.0
C77 C 0.22957 0.43660 0.66781 0.0
C78 C 0.20752 0.45897 0.68193 0.0
C79 C 0.17462 0.44528 0.68951 0.0
C80 C 0.26263 0.45002 0.66037 0.0
C81 C 0.28460 0.42744 0.64635 0.0
C82 C 0.06940 0.32059 0.75778 0.0
C83 C 0.07924 0.27513 0.78522 0.0
C84 C 0.07084 0.30197 0.80248 0.0
C85 C 0.06381 0.29073 0.82622 0.0
C86 C 0.06511 0.25266 0.83260 0.0
C87 C 0.07360 0.22586 0.81533 0.0
C88 C 0.08068 0.23711 0.79161 0.0
C89 C 0.05780 0.24124 0.85625 0.0
C90 C 0.05890 0.20310 0.86239 0.0
O91 O 0.99291 0.36858 0.68299 0.0
O92 O 0.08454 0.28591 0.76173 0.0
O93 O 0.13217 0.39546 0.69097 0.0
H94 H 0.85255 0.45052 0.65860 0.0
H95 H 0.84064 0.37334 0.63795 0.0
H96 H 0.89199 0.33137 0.64414 0.0
H97 H 0.95267 0.32014 0.65994 0.0
H98 H 0.95626 0.43088 0.68566 0.0
H99 H 0.89566 0.44211 0.66988 0.0
H100 H 0.00645 0.32381 0.66396 0.0
H101 H 0.98514 0.31462 0.69030 0.0
H102 H 0.00981 0.31575 0.74975 0.0
H103 H 0.99776 0.28716 0.72677 0.0
H104 H 0.98543 0.33291 0.72581 0.0
H105 H 0.04082 0.35121 0.65143 0.0
H106 H 0.07567 0.32103 0.64917 0.0
H107 H 0.08333 0.36722 0.65289 0.0
H108 H 0.12686 0.33999 0.75288 0.0
H109 H 0.13938 0.37209 0.73200 0.0
H110 H 0.15131 0.32660 0.72900 0.0
H111 H 0.15176 0.34367 0.69128 0.0
H112 H 0.12683 0.35591 0.66622 0.0
H113 H 0.17767 0.36039 0.66385 0.0
H114 H 0.23494 0.38423 0.65061 0.0
H115 H 0.21557 0.48559 0.68681 0.0
H116 H 0.15830 0.46173 0.70004 0.0
H117 H 0.27084 0.47660 0.66526 0.0
H118 H 0.27631 0.40089 0.64148 0.0
H119 H 0.08417 0.34085 0.76672 0.0
H120 H 0.04336 0.32072 0.76380 0.0
H121 H 0.06962 0.33009 0.79764 0.0
H122 H 0.05752 0.31053 0.83904 0.0
H123 H 0.07454 0.19770 0.82010 0.0
H124 H 0.08676 0.21730 0.77876 0.0
H125 H 0.05154 0.26093 0.86916 0.0
H126 H 0.06516 0.18350 0.84943 0.0
C127 C 0.65745 0.83988 0.37204 0.0
C128 C 0.68688 0.86081 0.38002 0.0
C129 C 0.69787 0.89168 0.36634 0.0
C130 C 0.72733 0.91281 0.37405 0.0
C131 C 0.73819 0.94360 0.36021 0.0
C132 C 0.71962 0.95314 0.33869 0.0
C133 C 0.69013 0.93209 0.33103 0.0
C134 C 0.67929 0.90135 0.34484 0.0
C135 C 0.75568 0.00421 0.33664 0.0
C136 C 0.75865 0.03539 0.32141 0.0
C137 C 0.78138 0.03403 0.30173 0.0
C138 C 0.77948 0.06259 0.28420 0.0
C139 C 0.75796 0.09428 0.28772 0.0
C140 C 0.73758 0.09696 0.30854 0.0
C141 C 0.73789 0.06744 0.32539 0.0
C142 C 0.71547 0.06881 0.34528 0.0
C143 C 0.80385 0.00287 0.29866 0.0
C144 C 0.75600 0.12263 0.26999 0.0
C145 C 0.79871 0.05941 0.26299 0.0
C146 C 0.79007 0.05149 0.22319 0.0
C147 C 0.82701 0.05679 0.22201 0.0
C148 C 0.84325 0.05871 0.19948 0.0
C149 C 0.82252 0.05533 0.17819 0.0
C150 C 0.78559 0.04974 0.17939 0.0
C151 C 0.76935 0.04782 0.20192 0.0
C152 C 0.83882 0.05761 0.15570 0.0
C153 C 0.87574 0.06335 0.15464 0.0
C154 C 0.71543 0.12812 0.31199 0.0
C155 C 0.71625 0.18471 0.32862 0.0
C156 C 0.68025 0.18752 0.32124 0.0
C157 C 0.65856 0.21575 0.33058 0.0
C158 C 0.67292 0.24100 0.34732 0.0
C159 C 0.70895 0.23819 0.35464 0.0
C160 C 0.73064 0.21002 0.34528 0.0
C161 C 0.65128 0.26905 0.35687 0.0
C162 C 0.66583 0.29395 0.37374 0.0
O163 O 0.72983 0.98342 0.32518 0.0
O164 O 0.73710 0.15611 0.32035 0.0
O165 O 0.77404 0.05073 0.24520 0.0
H166 H 0.64393 0.84733 0.35608 0.0
H167 H 0.70047 0.85345 0.39597 0.0
H168 H 0.74108 0.90566 0.38998 0.0
H169 H 0.75995 0.95932 0.36589 0.0
H170 H 0.67635 0.93931 0.31513 0.0
H171 H 0.65750 0.88571 0.33917 0.0
H172 H 0.77964 0.98943 0.33806 0.0
H173 H 0.74734 0.01239 0.35355 0.0
H174 H 0.69768 0.09109 0.34305 0.0
H175 H 0.73066 0.07228 0.36103 0.0
H176 H 0.70138 0.04400 0.34641 0.0
H177 H 0.79434 0.98027 0.30846 0.0
H178 H 0.82943 0.00923 0.30493 0.0
H179 H 0.80469 0.99614 0.28050 0.0
H180 H 0.73764 0.14289 0.27496 0.0
H181 H 0.74793 0.11112 0.25364 0.0
H182 H 0.78094 0.13464 0.26820 0.0
H183 H 0.81069 0.08472 0.25897 0.0
H184 H 0.81790 0.03835 0.26477 0.0
H185 H 0.84229 0.05943 0.23779 0.0
H186 H 0.87060 0.06272 0.19856 0.0
H187 H 0.77027 0.04711 0.16362 0.0
H188 H 0.74198 0.04383 0.20286 0.0
H189 H 0.82360 0.05510 0.13988 0.0
H190 H 0.89089 0.06585 0.17050 0.0
H191 H 0.70255 0.13637 0.29595 0.0
H192 H 0.69671 0.12160 0.32488 0.0
H193 H 0.66965 0.16861 0.30899 0.0
H194 H 0.63186 0.21788 0.32518 0.0
H195 H 0.71950 0.25691 0.36704 0.0
H196 H 0.75726 0.20774 0.35078 0.0
H197 H 0.62458 0.27134 0.35151 0.0
H198 H 0.69254 0.29156 0.37906 0.0
C199 C 0.78784 0.66920 0.64396 0.0
C200 C 0.80455 0.65031 0.66357 0.0
C201 C 0.83922 0.66019 0.67101 0.0
C202 C 0.85631 0.64147 0.69057 0.0
C203 C 0.89104 0.65149 0.69784 0.0
C204 C 0.90858 0.68014 0.68554 0.0
C205 C 0.89146 0.69891 0.66605 0.0
C206 C 0.85679 0.68891 0.65878 0.0
C207 C 0.95355 0.67329 0.71395 0.0
C208 C 0.98587 0.69092 0.71928 0.0
C209 C 0.01749 0.67752 0.70941 0.0
C210 C 0.04848 0.69904 0.71127 0.0
C211 C 0.04883 0.73157 0.72519 0.0
C212 C 0.01783 0.74311 0.73680 0.0
C213 C 0.98630 0.72278 0.73380 0.0
C214 C 0.95460 0.73584 0.74386 0.0
C215 C 0.01742 0.64425 0.69617 0.0
C216 C 0.07988 0.75310 0.72682 0.0
C217 C 0.07906 0.68842 0.69900 0.0
C218 C 0.11254 0.70681 0.66813 0.0
C219 C 0.13526 0.67731 0.67560 0.0
C220 C 0.16810 0.67219 0.66443 0.0
C221 C 0.17816 0.69658 0.64583 0.0
C222 C 0.15528 0.72592 0.63824 0.0
C223 C 0.12244 0.73104 0.64941 0.0
C224 C 0.21116 0.69155 0.63487 0.0
C225 C 0.23396 0.66224 0.64261 0.0
C226 C 0.01768 0.77596 0.75033 0.0
C227 C 0.02761 0.79580 0.78799 0.0
C228 C 0.01821 0.83142 0.77897 0.0
C229 C 0.01073 0.86034 0.79500 0.0
C230 C 0.01258 0.85351 0.82001 0.0
C231 C 0.02207 0.81789 0.82900 0.0
C232 C 0.02960 0.78900 0.81298 0.0
C233 C 0.00482 0.88221 0.83611 0.0
C234 C 0.00647 0.87501 0.86107 0.0
O235 O 0.94239 0.69038 0.69268 0.0
O236 O 0.03337 0.76706 0.77234 0.0
O237 O 0.08090 0.71247 0.67955 0.0
H238 H 0.80116 0.69041 0.63504 0.0
H239 H 0.79131 0.62909 0.67253 0.0
H240 H 0.84328 0.62022 0.69963 0.0
H241 H 0.90373 0.63772 0.71233 0.0
H242 H 0.90447 0.72022 0.65703 0.0
H243 H 0.84411 0.70275 0.64434 0.0
H244 H 0.95732 0.64478 0.71159 0.0
H245 H 0.93545 0.67827 0.72747 0.0
H246 H 0.95841 0.76275 0.75019 0.0
H247 H 0.94756 0.71838 0.75806 0.0
H248 H 0.93439 0.73611 0.73068 0.0
H249 H 0.99152 0.63838 0.69036 0.0
H250 H 0.02701 0.62251 0.70720 0.0
H251 H 0.03367 0.64698 0.68135 0.0
H252 H 0.07490 0.77694 0.73677 0.0
H253 H 0.08740 0.76074 0.70953 0.0
H254 H 0.10028 0.73752 0.73519 0.0
H255 H 0.10146 0.69129 0.71022 0.0
H256 H 0.07701 0.66101 0.69317 0.0
H257 H 0.12783 0.65938 0.68944 0.0
H258 H 0.18501 0.65041 0.66997 0.0
H259 H 0.16268 0.74389 0.62441 0.0
H260 H 0.10550 0.75284 0.64390 0.0
H261 H 0.21873 0.70951 0.62107 0.0
H262 H 0.22632 0.64433 0.65641 0.0
H263 H 0.03180 0.79701 0.74185 0.0
H264 H 0.99147 0.78461 0.75271 0.0
H265 H 0.01659 0.83629 0.76045 0.0
H266 H 0.00369 0.88674 0.78838 0.0
H267 H 0.02341 0.81290 0.84753 0.0
H268 H 0.03642 0.76255 0.81959 0.0
H269 H 0.99782 0.90869 0.82959 0.0
H270 H 0.01347 0.84849 0.86752 0.0
C271 C 0.39230 0.77300 0.36696 0.0
C272 C 0.35882 0.78986 0.37017 0.0
C273 C 0.35223 0.82622 0.36130 0.0
C274 C 0.31889 0.84348 0.36444 0.0
C275 C 0.31258 0.87992 0.35556 0.0
C276 C 0.33962 0.89898 0.34360 0.0
C277 C 0.37288 0.88169 0.34040 0.0
C278 C 0.37919 0.84531 0.34927 0.0
C279 C 0.29847 0.94551 0.33610 0.0
C280 C 0.29753 0.97958 0.32349 0.0
C281 C 0.30622 0.01262 0.33550 0.0
C282 C 0.31141 0.04541 0.32200 0.0
C283 C 0.30404 0.04613 0.29702 0.0
C284 C 0.29232 0.01369 0.28541 0.0
C285 C 0.28912 0.98035 0.29867 0.0
C286 C 0.28003 0.94723 0.28679 0.0
C287 C 0.31238 0.01217 0.36064 0.0
C288 C 0.30956 0.07900 0.28361 0.0
C289 C 0.32437 0.07745 0.33334 0.0
C290 C 0.37306 0.11332 0.33506 0.0
C291 C 0.35236 0.13649 0.34953 0.0
C292 C 0.36578 0.17097 0.35715 0.0
C293 C 0.39987 0.18222 0.35029 0.0
C294 C 0.42068 0.15889 0.33596 0.0
C295 C 0.40725 0.12441 0.32833 0.0
C296 C 0.41305 0.21687 0.35777 0.0
C297 C 0.39204 0.24011 0.37202 0.0
C298 C 0.28561 0.01389 0.26040 0.0
C299 C 0.24135 0.02404 0.23326 0.0
C300 C 0.26638 0.01495 0.21581 0.0
C301 C 0.25485 0.00737 0.19210 0.0
C302 C 0.21831 0.00879 0.18595 0.0
C303 C 0.19332 0.01797 0.20341 0.0
C304 C 0.20485 0.02561 0.22710 0.0
C305 C 0.20661 0.00010 0.16234 0.0
C306 C 0.17000 0.00212 0.15642 0.0
O307 O 0.33356 0.93446 0.33463 0.0
O308 O 0.25242 0.02982 0.25670 0.0
O309 O 0.35949 0.08010 0.32701 0.0
H310 H 0.41205 0.78746 0.35803 0.0
H311 H 0.33900 0.77549 0.37909 0.0
H312 H 0.29893 0.82933 0.37334 0.0
H313 H 0.28792 0.89274 0.35782 0.0
H314 H 0.39281 0.89583 0.33145 0.0
H315 H 0.40382 0.83251 0.34695 0.0
H316 H 0.29150 0.94900 0.35398 0.0
H317 H 0.28179 0.92642 0.32761 0.0
H318 H 0.28102 0.95159 0.26824 0.0
H319 H 0.25443 0.93932 0.29134 0.0
H320 H 0.29809 0.92627 0.29199 0.0
H321 H 0.31819 0.98504 0.36648 0.0
H322 H 0.28958 0.02166 0.36905 0.0
H323 H 0.33358 0.02948 0.36508 0.0
H324 H 0.30450 0.07404 0.26540 0.0
H325 H 0.33587 0.08728 0.28614 0.0
H326 H 0.29258 0.09996 0.28945 0.0
H327 H 0.31011 0.10079 0.32707 0.0
H328 H 0.32252 0.07492 0.35198 0.0
H329 H 0.32706 0.12817 0.35451 0.0
H330 H 0.35047 0.18821 0.36783 0.0
H331 H 0.44597 0.16718 0.33095 0.0
H332 H 0.42255 0.10714 0.31764 0.0
H333 H 0.43829 0.22533 0.35276 0.0
H334 H 0.36682 0.23158 0.37701 0.0
H335 H 0.30470 0.02918 0.25139 0.0
H336 H 0.28544 0.98654 0.25427 0.0
H337 H 0.29338 0.01363 0.22048 0.0
H338 H 0.27331 0.00010 0.17913 0.0
H339 H 0.16628 0.01899 0.19881 0.0
H340 H 0.18639 0.03218 0.24009 0.0
H341 H 0.22495 0.99414 0.14929 0.0
H342 H 0.15173 0.00889 0.16953 0.0
C343 C 0.65851 0.49240 0.54803 0.0
C344 C 0.68584 0.48219 0.56465 0.0
C345 C 0.71318 0.47197 0.58129 0.0
C346 C 0.74044 0.46180 0.59796 0.0
C347 C 0.76765 0.45169 0.61473 0.0
C348 C 0.79479 0.44163 0.63153 0.0
C349 C 0.56960 0.45943 0.45384 0.0
C350 C 0.58527 0.43160 0.43984 0.0
C351 C 0.60095 0.40375 0.42581 0.0
C352 C 0.61652 0.37590 0.41179 0.0
C353 C 0.63196 0.34795 0.39773 0.0
C354 C 0.64730 0.31999 0.38367 0.0
C355 C 0.41517 0.59031 0.54718 0.0
C356 C 0.38803 0.60215 0.56241 0.0
C357 C 0.36087 0.61400 0.57765 0.0
C358 C 0.33367 0.62580 0.59283 0.0
C359 C 0.30633 0.63759 0.60794 0.0
C360 C 0.27895 0.64934 0.62300 0.0
C361 C 0.58012 0.65713 0.47100 0.0
C362 C 0.59222 0.68509 0.45532 0.0
C363 C 0.60433 0.71308 0.43963 0.0
C364 C 0.61644 0.74110 0.42401 0.0
C365 C 0.62858 0.76926 0.40846 0.0
C366 C 0.64073 0.79746 0.39296 0.0
C367 C 0.47688 0.41745 0.46909 0.0
C368 C 0.46347 0.39072 0.45300 0.0
C369 C 0.45004 0.36396 0.43690 0.0
C370 C 0.43672 0.33720 0.42082 0.0
C371 C 0.42354 0.31034 0.40470 0.0
C372 C 0.41045 0.28348 0.38859 0.0
C373 C 0.44887 0.50249 0.56827 0.0
C374 C 0.42123 0.48943 0.58266 0.0
C375 C 0.39355 0.47636 0.59706 0.0
C376 C 0.36585 0.46338 0.61142 0.0
C377 C 0.33801 0.45050 0.62575 0.0
C378 C 0.31014 0.43770 0.64005 0.0
C379 C 0.49110 0.61306 0.45234 0.0
C380 C 0.47308 0.63903 0.43716 0.0
C381 C 0.45504 0.66502 0.42197 0.0
C382 C 0.43698 0.69090 0.40677 0.0
C383 C 0.41883 0.71668 0.39149 0.0
C384 C 0.40065 0.74237 0.37619 0.0
C385 C 0.61440 0.57749 0.56921 0.0
C386 C 0.64276 0.59358 0.58229 0.0
C387 C 0.67114 0.60967 0.59538 0.0
C388 C 0.69943 0.62576 0.60851 0.0
C389 C 0.72765 0.64187 0.62174 0.0
C390 C 0.75580 0.65798 0.63502 0.0
C391 C 0.97577 0.03060 0.08291 0.0
C392 C 0.92191 0.05398 0.09151 0.0
C393 C 0.90142 0.07164 0.10867 0.0
C394 C 0.90233 0.05355 0.13056 0.0
C395 C 0.93711 0.04574 0.13849 0.0
C396 C 0.95581 0.02743 0.12077 0.0
N397 N 0.95622 0.04779 0.10021 0.0
H398 H 0.96525 0.06809 0.10317 0.0
H399 H 0.96127 0.01743 0.07356 0.0
H400 H 0.99122 0.01494 0.09003 0.0
H401 H 0.91210 0.03244 0.08764 0.0
H402 H 0.92244 0.06804 0.07829 0.0
H403 H 0.90923 0.09467 0.11059 0.0
H404 H 0.87909 0.07311 0.10325 0.0
H405 H 0.89174 0.03154 0.12831 0.0
H406 H 0.94800 0.06682 0.14216 0.0
H407 H 0.93676 0.03159 0.15167 0.0
H408 H 0.97800 0.02318 0.12600 0.0
H409 H 0.94581 0.00562 0.11786 0.0
C410 C 0.05095 0.10026 0.94174 0.0
C411 C 0.02382 0.14275 0.91734 0.0
C412 C 0.02509 0.16245 0.89558 0.0
C413 C 0.05657 0.18078 0.89267 0.0
C414 C 0.08584 0.15729 0.89696 0.0
C415 C 0.08331 0.13917 0.91913 0.0
N416 N 0.05305 0.11939 0.92028 0.0
H417 H 0.05271 0.10427 0.90925 0.0
H418 H 0.03874 0.11388 0.95195 0.0
H419 H 0.07273 0.09689 0.94795 0.0
H420 H 0.02326 0.15862 0.92943 0.0
H421 H 0.00410 0.12939 0.91761 0.0
H422 H 0.02193 0.14670 0.88356 0.0
H423 H 0.00736 0.17887 0.89486 0.0
H424 H 0.05756 0.19839 0.90397 0.0
H425 H 0.08691 0.14054 0.88538 0.0
H426 H 0.10564 0.17051 0.89678 0.0
H427 H 0.10189 0.12396 0.92138 0.0
H428 H 0.08381 0.15582 0.93078 0.0
C429 C 0.06764 0.01485 0.08307 0.0
C430 C 0.12488 0.02066 0.09505 0.0
C431 C 0.15252 0.00630 0.10970 0.0
C432 C 0.14347 0.00248 0.13336 0.0
C433 C 0.11152 0.98351 0.13572 0.0
C434 C 0.08494 0.99990 0.12107 0.0
N435 N 0.09426 0.00010 0.09778 0.0
H436 H 0.09831 0.97868 0.09363 0.0
H437 H 0.07147 0.03897 0.08083 0.0
H438 H 0.04701 0.01246 0.09032 0.0
H439 H 0.12071 0.04418 0.09884 0.0
H440 H 0.13121 0.02014 0.07978 0.0
H441 H 0.15899 0.98423 0.10419 0.0
H442 H 0.17107 0.02125 0.10877 0.0
H443 H 0.13980 0.02555 0.13884 0.0
H444 H 0.11454 0.95989 0.13165 0.0
H445 H 0.10500 0.98403 0.15093 0.0
H446 H 0.06496 0.98696 0.12255 0.0
H447 H 0.08084 0.02282 0.12582 0.0
C448 C 0.00010 0.96575 0.94406 0.0
C449 C 0.02849 0.94100 0.91264 0.0
C450 C 0.02497 0.92822 0.88909 0.0
C451 C 0.99883 0.90210 0.88632 0.0
C452 C 0.96682 0.91400 0.89594 0.0
C453 C 0.97206 0.92557 0.91957 0.0
N454 N 0.99611 0.95318 0.92094 0.0
H455 H 0.98904 0.97064 0.91230 0.0
H456 H 0.01871 0.95379 0.95112 0.0
H457 H 0.98112 0.96047 0.95224 0.0
H458 H 0.03693 0.92280 0.92214 0.0
H459 H 0.04388 0.95957 0.91313 0.0
H460 H 0.02009 0.94743 0.87935 0.0
H461 H 0.04552 0.91841 0.88478 0.0
H462 H 0.00598 0.88201 0.89494 0.0
H463 H 0.95785 0.93273 0.88709 0.0
H464 H 0.95136 0.89552 0.89556 0.0
H465 H 0.95152 0.93354 0.92527 0.0
H466 H 0.97955 0.90643 0.92863 0.0
