data_{}
_symmetry_space_group_name_H-M    P1
_symmetry_Int_Tables_number       1
_symmetry_cell_setting            triclinic
loop_
_symmetry_equiv_pos_as_xyz
'x, y, z'
_cell_length_a     65.182
_cell_length_b     29.637
_cell_length_c     56.906
_cell_angle_alpha  91.337
_cell_angle_beta   90.303
_cell_angle_gamma  112.391
loop_
_atom_site_label
_atom_site_type_symbol
_atom_site_fract_x
_atom_site_fract_y
_atom_site_fract_z
_atom_type_partial_charge
C0 C 0.01520 0.98044 0.60228 0.0
C1 C 0.01504 0.93585 0.61577 0.0
C2 C 0.01470 0.93669 0.64283 0.0
C3 C 0.01453 0.98211 0.65641 0.0
C4 C 0.01470 0.02669 0.64292 0.0
C5 C 0.01503 0.02586 0.61586 0.0
C6 C 0.01554 0.97960 0.57522 0.0
C7 C 0.01570 0.02419 0.56173 0.0
C8 C 0.01553 0.06960 0.57531 0.0
C9 C 0.01520 0.07044 0.60237 0.0
C10 C 0.01503 0.11586 0.61595 0.0
C11 C 0.01470 0.11670 0.64301 0.0
C12 C 0.01453 0.07211 0.65649 0.0
H13 H 0.01516 0.90223 0.60572 0.0
H14 H 0.01429 0.98273 0.67644 0.0
H15 H 0.01566 0.94598 0.56517 0.0
H16 H 0.01566 0.10261 0.56532 0.0
H17 H 0.01516 0.14886 0.60596 0.0
H18 H 0.01429 0.07273 0.67653 0.0
C19 C 0.01409 0.97194 0.42206 0.0
C20 C 0.01382 0.92615 0.40848 0.0
C21 C 0.01329 0.92459 0.38141 0.0
C22 C 0.01302 0.96881 0.36791 0.0
C23 C 0.01329 0.01459 0.38149 0.0
C24 C 0.01383 0.01616 0.40856 0.0
C25 C 0.01463 0.97351 0.44913 0.0
C26 C 0.01490 0.01930 0.46271 0.0
C27 C 0.01463 0.06351 0.44922 0.0
C28 C 0.01410 0.06194 0.42214 0.0
C29 C 0.01383 0.10617 0.40865 0.0
C30 C 0.01329 0.10460 0.38158 0.0
C31 C 0.01302 0.05881 0.36800 0.0
H32 H 0.01402 0.89342 0.41847 0.0
H33 H 0.01262 0.96765 0.34787 0.0
H34 H 0.01483 0.94077 0.45912 0.0
H35 H 0.01483 0.09741 0.45927 0.0
H36 H 0.01403 0.14006 0.41870 0.0
H37 H 0.01262 0.05765 0.34796 0.0
H38 H 0.04287 0.56265 0.71932 0.0
H39 H 0.03412 0.59160 0.73760 0.0
C40 C 0.00203 0.53896 0.70472 0.0
C41 C 0.00989 0.52449 0.72770 0.0
H42 H 0.01100 0.46012 0.74013 0.0
H43 H 0.99424 0.45078 0.71881 0.0
C44 C 0.99508 0.52744 0.74797 0.0
O45 O 0.99990 0.58414 0.70929 0.0
C46 C 0.03376 0.55953 0.73308 0.0
O47 O 0.97255 0.50161 0.74041 0.0
O48 O 0.04188 0.53958 0.75198 0.0
H49 H 0.98803 0.51395 0.69951 0.0
H50 H 0.01288 0.54289 0.69253 0.0
O51 O 0.02572 0.47264 0.70910 0.0
C52 C 0.00868 0.47204 0.72501 0.0
H53 H 0.99764 0.56124 0.75182 0.0
H54 H 0.99830 0.51270 0.76184 0.0
H55 H 0.04166 0.52600 0.30608 0.0
H56 H 0.03296 0.48243 0.28749 0.0
C57 C 0.00010 0.48115 0.31925 0.0
C58 C 0.00869 0.50885 0.29654 0.0
H59 H 0.00983 0.57510 0.28415 0.0
H60 H 0.99303 0.55630 0.30488 0.0
C61 C 0.99394 0.48110 0.27575 0.0
O62 O 0.99816 0.43157 0.31458 0.0
C63 C 0.03258 0.51387 0.29200 0.0
O64 O 0.97139 0.46914 0.28252 0.0
O65 O 0.04075 0.54748 0.27339 0.0
H66 H 0.98678 0.48268 0.32396 0.0
H67 H 0.01161 0.49541 0.33181 0.0
O68 O 0.02448 0.58721 0.31570 0.0
C69 C 0.00748 0.55928 0.29919 0.0
H70 H 0.99651 0.45162 0.27199 0.0
H71 H 0.99719 0.50127 0.26200 0.0
C72 C 0.79445 0.24430 0.16242 0.0
C73 C 0.77999 0.20044 0.14680 0.0
C74 C 0.76711 0.20863 0.12565 0.0
C75 C 0.75252 0.16512 0.10989 0.0
C76 C 0.73965 0.17370 0.08881 0.0
C77 C 0.74137 0.22572 0.08358 0.0
C78 C 0.75601 0.26919 0.09928 0.0
C79 C 0.76886 0.26063 0.12033 0.0
C80 C 0.71838 0.18958 0.04731 0.0
C81 C 0.70974 0.20895 0.02626 0.0
C82 C 0.68679 0.21223 0.02721 0.0
C83 C 0.68011 0.24029 0.00819 0.0
C84 C 0.69509 0.25968 0.98687 0.0
C85 C 0.71712 0.25214 0.98490 0.0
C86 C 0.72447 0.22681 0.00465 0.0
C87 C 0.74733 0.22288 0.00369 0.0
C88 C 0.67143 0.19116 0.04811 0.0
C89 C 0.68836 0.28808 0.96802 0.0
C90 C 0.65861 0.24966 0.01056 0.0
C91 C 0.64585 0.31685 0.01772 0.0
C92 C 0.62255 0.27764 0.01296 0.0
C93 C 0.60232 0.29232 0.01194 0.0
C94 C 0.60543 0.34617 0.01568 0.0
C95 C 0.62874 0.38533 0.02063 0.0
C96 C 0.64897 0.37065 0.02165 0.0
C97 C 0.58518 0.36073 0.01441 0.0
C98 C 0.56195 0.32138 0.00934 0.0
C99 C 0.73246 0.27231 0.96398 0.0
C100 C 0.73970 0.24829 0.92432 0.0
C101 C 0.75857 0.29903 0.92376 0.0
C102 C 0.77629 0.31009 0.90462 0.0
C103 C 0.77511 0.27032 0.88616 0.0
C104 C 0.75620 0.21964 0.88673 0.0
C105 C 0.73847 0.20861 0.90582 0.0
C106 C 0.79289 0.28100 0.86714 0.0
C107 C 0.79166 0.24083 0.84891 0.0
O108 O 0.72905 0.23454 0.06286 0.0
O109 O 0.72298 0.23662 0.94370 0.0
O110 O 0.66572 0.30270 0.01794 0.0
H111 H 0.79558 0.28262 0.15828 0.0
H112 H 0.77882 0.16206 0.15088 0.0
H113 H 0.75124 0.12662 0.11382 0.0
H114 H 0.72886 0.14158 0.07710 0.0
H115 H 0.75732 0.30770 0.09531 0.0
H116 H 0.77967 0.29278 0.13199 0.0
H117 H 0.70419 0.16064 0.05672 0.0
H118 H 0.73122 0.17445 0.04132 0.0
H119 H 0.75737 0.24627 0.98895 0.0
H120 H 0.74512 0.18322 0.00010 0.0
H121 H 0.75644 0.23643 0.02120 0.0
H122 H 0.68166 0.18709 0.06364 0.0
H123 H 0.65851 0.15378 0.04271 0.0
H124 H 0.66264 0.21646 0.05338 0.0
H125 H 0.70201 0.30162 0.95443 0.0
H126 H 0.68587 0.32056 0.97679 0.0
H127 H 0.67220 0.26320 0.95903 0.0
H128 H 0.64949 0.24266 0.99287 0.0
H129 H 0.64751 0.22538 0.02442 0.0
H130 H 0.62029 0.23781 0.01010 0.0
H131 H 0.58505 0.26336 0.00837 0.0
H132 H 0.63103 0.42517 0.02348 0.0
H133 H 0.66627 0.39960 0.02521 0.0
H134 H 0.58738 0.40054 0.01718 0.0
H135 H 0.55980 0.28160 0.00659 0.0
H136 H 0.73315 0.31002 0.95926 0.0
H137 H 0.74984 0.27426 0.96859 0.0
H138 H 0.75948 0.32822 0.93757 0.0
H139 H 0.79031 0.34760 0.90417 0.0
H140 H 0.75538 0.19026 0.87304 0.0
H141 H 0.72454 0.17102 0.90637 0.0
H142 H 0.80694 0.31846 0.86658 0.0
H143 H 0.77759 0.20341 0.84954 0.0
C144 C 0.22476 0.79275 0.86187 0.0
C145 C 0.21818 0.74535 0.87570 0.0
C146 C 0.23241 0.74302 0.89696 0.0
C147 C 0.22609 0.69582 0.91093 0.0
C148 C 0.24048 0.69383 0.93214 0.0
C149 C 0.26116 0.73898 0.93929 0.0
C150 C 0.26743 0.78617 0.92537 0.0
C151 C 0.25306 0.78816 0.90420 0.0
C152 C 0.26491 0.69164 0.97391 0.0
C153 C 0.28029 0.70155 0.99554 0.0
C154 C 0.30128 0.68977 0.99443 0.0
C155 C 0.31874 0.70843 0.01436 0.0
C156 C 0.31398 0.73337 0.03656 0.0
C157 C 0.29194 0.74088 0.03852 0.0
C158 C 0.27510 0.72502 0.01796 0.0
C159 C 0.25390 0.73618 0.01907 0.0
C160 C 0.30564 0.66312 0.97258 0.0
C161 C 0.33162 0.75230 0.05634 0.0
C162 C 0.34111 0.70284 0.01207 0.0
C163 C 0.38077 0.75233 0.00721 0.0
C164 C 0.38385 0.70383 0.01024 0.0
C165 C 0.40736 0.70339 0.01154 0.0
C166 C 0.42775 0.75145 0.00981 0.0
C167 C 0.42465 0.79993 0.00659 0.0
C168 C 0.40114 0.80036 0.00529 0.0
C169 C 0.45123 0.75089 0.01136 0.0
C170 C 0.45418 0.70229 0.01469 0.0
C171 C 0.28722 0.76675 0.06036 0.0
C172 C 0.27031 0.74882 0.09919 0.0
C173 C 0.27588 0.80404 0.10184 0.0
C174 C 0.26525 0.82376 0.12158 0.0
C175 C 0.24905 0.78816 0.13856 0.0
C176 C 0.24354 0.73296 0.13591 0.0
C177 C 0.25419 0.71326 0.11620 0.0
C178 C 0.23821 0.80759 0.15817 0.0
C179 C 0.22189 0.77162 0.17491 0.0
O180 O 0.27519 0.73757 0.96015 0.0
O181 O 0.27982 0.72924 0.07920 0.0
O182 O 0.35778 0.75294 0.00672 0.0
H183 H 0.24012 0.82590 0.86743 0.0
H184 H 0.20284 0.71212 0.87021 0.0
H185 H 0.21079 0.66241 0.90558 0.0
H186 H 0.23582 0.65898 0.94254 0.0
H187 H 0.28271 0.81961 0.93077 0.0
H188 H 0.25771 0.82305 0.89386 0.0
H189 H 0.26476 0.65843 0.96328 0.0
H190 H 0.24741 0.68662 0.97950 0.0
H191 H 0.25515 0.76174 0.03477 0.0
H192 H 0.23881 0.70079 0.02102 0.0
H193 H 0.25213 0.75445 0.00219 0.0
H194 H 0.29536 0.66698 0.95705 0.0
H195 H 0.30063 0.62276 0.97645 0.0
H196 H 0.32400 0.67935 0.96813 0.0
H197 H 0.32560 0.77183 0.07058 0.0
H198 H 0.34772 0.77884 0.04873 0.0
H199 H 0.33468 0.72034 0.06421 0.0
H200 H 0.34569 0.69013 0.02937 0.0
H201 H 0.34037 0.67580 0.99720 0.0
H202 H 0.36873 0.66830 0.01162 0.0
H203 H 0.40969 0.66752 0.01384 0.0
H204 H 0.43975 0.83548 0.00522 0.0
H205 H 0.39879 0.83624 0.00300 0.0
H206 H 0.46639 0.78636 0.01007 0.0
H207 H 0.43899 0.66689 0.01596 0.0
H208 H 0.30268 0.79908 0.06646 0.0
H209 H 0.27329 0.77972 0.05605 0.0
H210 H 0.28773 0.83022 0.08912 0.0
H211 H 0.26931 0.86463 0.12358 0.0
H212 H 0.23153 0.70669 0.14850 0.0
H213 H 0.25003 0.67239 0.11411 0.0
H214 H 0.24222 0.84843 0.16028 0.0
H215 H 0.21792 0.73081 0.17273 0.0
C216 C 0.94285 0.46889 0.76372 0.0
C217 C 0.91998 0.46861 0.77060 0.0
C218 C 0.90275 0.42339 0.78194 0.0
N219 N 0.88035 0.42332 0.78865 0.0
N220 N 0.86376 0.37994 0.79955 0.0
C221 C 0.86922 0.33569 0.80398 0.0
N222 N 0.89162 0.33575 0.79728 0.0
N223 N 0.90822 0.37913 0.78637 0.0
C224 C 0.85198 0.29049 0.81533 0.0
C225 C 0.82912 0.29027 0.82219 0.0
H226 H 0.91579 0.50195 0.76728 0.0
H227 H 0.85616 0.25713 0.81865 0.0
H228 H 0.94842 0.43725 0.76640 0.0
H229 H 0.82441 0.32300 0.81911 0.0
C230 C 0.94269 0.42227 0.25912 0.0
C231 C 0.93296 0.37846 0.24174 0.0
C232 C 0.90864 0.36161 0.23320 0.0
N233 N 0.89919 0.31863 0.21616 0.0
N234 N 0.87583 0.30235 0.20792 0.0
C235 C 0.86142 0.32872 0.21656 0.0
N236 N 0.87087 0.37170 0.23361 0.0
N237 N 0.89423 0.38799 0.24185 0.0
C238 C 0.83711 0.31185 0.20802 0.0
C239 C 0.82741 0.26804 0.19063 0.0
H240 H 0.94378 0.35844 0.23516 0.0
H241 H 0.82627 0.33185 0.21458 0.0
H242 H 0.93308 0.44431 0.26656 0.0
H243 H 0.83778 0.24725 0.18373 0.0
C244 C 0.07618 0.57614 0.76647 0.0
C245 C 0.10044 0.58101 0.76944 0.0
C246 C 0.11692 0.62342 0.78445 0.0
N247 N 0.14070 0.62802 0.78730 0.0
N248 N 0.15658 0.66872 0.80171 0.0
C249 C 0.14902 0.70570 0.81358 0.0
N250 N 0.12525 0.70111 0.81073 0.0
N251 N 0.10936 0.66041 0.79632 0.0
C252 C 0.16552 0.74809 0.82859 0.0
C253 C 0.18977 0.75291 0.83154 0.0
H254 H 0.10622 0.55317 0.76051 0.0
H255 H 0.15975 0.77596 0.83753 0.0
H256 H 0.06901 0.60224 0.77475 0.0
H257 H 0.19608 0.72570 0.82284 0.0
C258 C 0.07428 0.59846 0.26266 0.0
C259 C 0.08379 0.64117 0.24580 0.0
C260 C 0.10834 0.65917 0.23867 0.0
N261 N 0.11758 0.70107 0.22213 0.0
N262 N 0.14115 0.71845 0.21524 0.0
C263 C 0.15599 0.69430 0.22475 0.0
N264 N 0.14675 0.65240 0.24130 0.0
N265 N 0.12317 0.63501 0.24819 0.0
C266 C 0.18053 0.71232 0.21761 0.0
C267 C 0.19002 0.75502 0.20075 0.0
H268 H 0.07265 0.65952 0.23857 0.0
H269 H 0.19169 0.69400 0.22483 0.0
H270 H 0.08420 0.57808 0.27069 0.0
H271 H 0.17932 0.77414 0.19322 0.0
C272 C 0.50725 0.67279 0.01021 0.0
C273 C 0.51845 0.63554 0.00841 0.0
C274 C 0.50453 0.58073 0.01084 0.0
C275 C 0.47939 0.56315 0.01497 0.0
C276 C 0.46818 0.60038 0.01673 0.0
C277 C 0.48212 0.65522 0.01438 0.0
C278 C 0.51577 0.54353 0.00922 0.0
C279 C 0.50190 0.48874 0.01192 0.0
C280 C 0.51328 0.45175 0.01094 0.0
C281 C 0.49950 0.39703 0.01396 0.0
C282 C 0.51093 0.36011 0.01319 0.0
C283 C 0.53612 0.37789 0.00932 0.0
C284 C 0.54987 0.43259 0.00618 0.0
C285 C 0.53845 0.46950 0.00699 0.0
H286 H 0.51757 0.71338 0.00846 0.0
H287 H 0.53705 0.64856 0.00528 0.0
H288 H 0.46907 0.52255 0.01673 0.0
H289 H 0.44957 0.58735 0.01978 0.0
H290 H 0.53436 0.55654 0.00602 0.0
H291 H 0.48324 0.47561 0.01464 0.0
H292 H 0.48085 0.38384 0.01676 0.0
H293 H 0.50074 0.31961 0.01548 0.0
H294 H 0.56850 0.44576 0.00327 0.0
H295 H 0.54863 0.50999 0.00465 0.0
C296 C 0.01624 0.16175 0.65132 0.0
C297 C 0.02833 0.19953 0.67086 0.0
C298 C 0.02354 0.24632 0.67406 0.0
C299 C 0.03567 0.28412 0.69357 0.0
C300 C 0.03093 0.33098 0.69673 0.0
C301 C 0.01407 0.34002 0.68038 0.0
C302 C 0.00191 0.30217 0.66089 0.0
C303 C 0.00665 0.25532 0.65772 0.0
C304 C 0.00936 0.38691 0.68352 0.0
C305 C 0.02154 0.42478 0.70299 0.0
H306 H 0.04082 0.19285 0.68297 0.0
H307 H 0.04815 0.27742 0.70568 0.0
H308 H 0.03991 0.35896 0.71118 0.0
H309 H 0.98940 0.30883 0.64881 0.0
H310 H 0.99766 0.22730 0.64329 0.0
H311 H 0.99686 0.39358 0.67143 0.0
H312 H 0.00714 0.16966 0.63577 0.0
H313 H 0.03055 0.41139 0.71672 0.0
C314 C 0.01448 0.89320 0.65105 0.0
C315 C 0.99563 0.84379 0.65558 0.0
C316 C 0.00010 0.80199 0.66606 0.0
C317 C 0.98210 0.75255 0.67054 0.0
C318 C 0.98743 0.71070 0.68097 0.0
C319 C 0.01161 0.71829 0.68692 0.0
C320 C 0.03047 0.76776 0.68247 0.0
C321 C 0.02514 0.80961 0.67204 0.0
C322 C 0.01694 0.67641 0.69730 0.0
C323 C 0.99809 0.62692 0.70171 0.0
H324 H 0.97772 0.83815 0.65118 0.0
H325 H 0.96419 0.74694 0.66615 0.0
H326 H 0.97346 0.67410 0.68428 0.0
H327 H 0.04837 0.77340 0.68691 0.0
H328 H 0.03910 0.84623 0.66875 0.0
H329 H 0.03485 0.68204 0.70172 0.0
H330 H 0.03278 0.89890 0.65041 0.0
H331 H 0.98067 0.62725 0.70083 0.0
C332 C 0.01283 0.88016 0.37314 0.0
C333 C 0.03077 0.85983 0.36732 0.0
C334 C 0.02403 0.80740 0.35725 0.0
C335 C 0.04197 0.78707 0.35147 0.0
C336 C 0.03523 0.73459 0.34146 0.0
C337 C 0.01055 0.70248 0.33721 0.0
C338 C 0.99261 0.72285 0.34294 0.0
C339 C 0.99990 0.77531 0.35296 0.0
C340 C 0.00381 0.64998 0.32723 0.0
C341 C 0.02176 0.62959 0.32153 0.0
H342 H 0.04904 0.88359 0.37046 0.0
H343 H 0.06024 0.81085 0.35461 0.0
H344 H 0.04852 0.71954 0.33719 0.0
H345 H 0.97434 0.69909 0.33977 0.0
H346 H 0.98606 0.79039 0.35721 0.0
H347 H 0.98554 0.62621 0.32407 0.0
H348 H 0.99448 0.85654 0.37506 0.0
H349 H 0.03942 0.65812 0.32119 0.0
C350 C 0.01430 0.14722 0.37090 0.0
C351 C 0.00835 0.18953 0.38068 0.0
C352 C 0.00660 0.22814 0.36401 0.0
C353 C 0.00010 0.27048 0.37381 0.0
C354 C 0.99900 0.30918 0.35716 0.0
C355 C 0.00320 0.30551 0.33071 0.0
C356 C 0.00906 0.26311 0.32090 0.0
C357 C 0.01077 0.22443 0.33756 0.0
C358 C 0.00154 0.34425 0.31406 0.0
C359 C 0.99570 0.38668 0.32388 0.0
H360 H 0.00524 0.19226 0.40026 0.0
H361 H 0.99758 0.27318 0.39338 0.0
H362 H 0.99463 0.34053 0.36441 0.0
H363 H 0.01214 0.26037 0.30132 0.0
H364 H 0.01511 0.19305 0.33030 0.0
H365 H 0.00463 0.34152 0.29448 0.0
H366 H 0.02192 0.14698 0.35294 0.0
H367 H 0.98905 0.38184 0.34253 0.0
C368 C 0.01139 0.02408 0.49186 0.0
C369 C 0.01639 0.00215 0.51373 0.0
C370 C 0.00865 0.02474 0.53521 0.0
C371 C 0.00987 0.07449 0.52750 0.0
C372 C 0.01772 0.07749 0.50103 0.0
C373 C 0.98787 0.00969 0.48620 0.0
C374 C 0.00424 0.94302 0.51225 0.0
C375 C 0.04038 0.00838 0.51625 0.0
H376 H 0.99293 0.00475 0.53745 0.0
H377 H 0.02050 0.10044 0.53714 0.0
H378 H 0.99549 0.07696 0.52853 0.0
H379 H 0.01035 0.09399 0.49167 0.0
H380 H 0.03363 0.09535 0.50020 0.0
H381 H 0.98547 0.00260 0.46963 0.0
H382 H 0.98324 0.03585 0.49051 0.0
H383 H 0.97944 0.98116 0.49475 0.0
H384 H 0.99061 0.93394 0.50342 0.0
H385 H 0.00114 0.93072 0.52783 0.0
H386 H 0.01379 0.92947 0.50463 0.0
H387 H 0.04487 0.01452 0.53248 0.0
H388 H 0.04946 0.03544 0.50714 0.0
H389 H 0.04209 0.97919 0.51071 0.0
