data_{}
_symmetry_space_group_name_H-M    P1
_symmetry_Int_Tables_number       1
_symmetry_cell_setting            triclinic
loop_
_symmetry_equiv_pos_as_xyz
'x, y, z'
_cell_length_a     42.114
_cell_length_b     39.923
_cell_length_c     71.504
_cell_angle_alpha  89.703
_cell_angle_beta   91.088
_cell_angle_gamma  87.871
loop_
_atom_site_label
_atom_site_type_symbol
_atom_site_fract_x
_atom_site_fract_y
_atom_site_fract_z
_atom_type_partial_charge
Zn0 Zn 0.03321 0.02818 0.01495 0.0
C1 C 0.99863 0.02048 0.05171 0.0
C2 C 0.98187 0.00714 0.06612 0.0
C3 C 0.97500 0.97300 0.06509 0.0
C4 C 0.98385 0.95545 0.04923 0.0
C5 C 0.99990 0.97117 0.03553 0.0
C6 C 0.07447 0.02943 0.05042 0.0
C7 C 0.09388 0.04020 0.06469 0.0
C8 C 0.10068 0.07441 0.06502 0.0
C9 C 0.08902 0.09467 0.05047 0.0
C10 C 0.07056 0.08140 0.03676 0.0
N11 N 0.00274 0.00817 0.99340 0.0
N12 N 0.05969 0.05204 0.99332 0.0
N13 N 0.00749 0.00327 0.03653 0.0
N14 N 0.06291 0.04923 0.03653 0.0
H15 H 0.03829 0.99398 0.97733 0.0
H16 H 0.95228 0.97459 0.95501 0.0
H17 H 0.92950 0.99739 0.98211 0.0
H18 H 0.96151 0.01833 0.00519 0.0
H19 H 0.02137 0.06891 0.97945 0.0
H20 H 0.10304 0.09250 0.95484 0.0
H21 H 0.13062 0.06505 0.97974 0.0
H22 H 0.10289 0.03997 0.00291 0.0
H23 H 0.00420 0.04325 0.05258 0.0
H24 H 0.96458 0.96222 0.07499 0.0
H25 H 0.97879 0.93257 0.04790 0.0
H26 H 0.00572 0.95874 0.02477 0.0
H27 H 0.06898 0.00657 0.05043 0.0
H28 H 0.11294 0.08341 0.07494 0.0
H29 H 0.09392 0.11771 0.05004 0.0
H30 H 0.06272 0.09568 0.02691 0.0
C31 C 0.01581 0.99433 0.97822 0.0
C32 C 0.99862 0.98053 0.96383 0.0
C33 C 0.96530 0.98255 0.96489 0.0
C34 C 0.95193 0.99648 0.98076 0.0
C35 C 0.97109 0.00880 0.99444 0.0
C36 C 0.04393 0.06848 0.97943 0.0
C37 C 0.05847 0.08485 0.96514 0.0
C38 C 0.09185 0.08277 0.96478 0.0
C39 C 0.10803 0.06612 0.97933 0.0
C40 C 0.09141 0.05134 0.99307 0.0
Si41 Si 0.54090 0.53261 0.51961 0.0
C42 C 0.61281 0.55572 0.55742 0.0
C43 C 0.51286 0.60213 0.47856 0.0
C44 C 0.51525 0.57423 0.49036 0.0
C45 C 0.54052 0.56995 0.50367 0.0
C46 C 0.56386 0.59381 0.50391 0.0
C47 C 0.56197 0.62123 0.49172 0.0
C48 C 0.53649 0.62545 0.47938 0.0
C49 C 0.51351 0.44572 0.49223 0.0
C50 C 0.51499 0.47190 0.50490 0.0
C51 C 0.53797 0.49555 0.50373 0.0
C52 C 0.56013 0.49272 0.48934 0.0
C53 C 0.55928 0.46688 0.47664 0.0
C54 C 0.53625 0.44336 0.47796 0.0
H55 H 0.65746 0.53590 0.55854 0.0
C56 C 0.45515 0.56401 0.54255 0.0
C57 C 0.44992 0.53965 0.55583 0.0
C58 C 0.47174 0.51345 0.55872 0.0
C59 C 0.49904 0.51171 0.54838 0.0
C60 C 0.50521 0.53576 0.53486 0.0
H61 H 0.53511 0.64414 0.47153 0.0
C62 C 0.48258 0.56153 0.53219 0.0
H63 H 0.49995 0.55809 0.48950 0.0
H64 H 0.53568 0.42590 0.46945 0.0
H65 H 0.43156 0.54097 0.56284 0.0
C66 C 0.63779 0.53443 0.55250 0.0
H67 H 0.58094 0.59139 0.51230 0.0
H68 H 0.50019 0.47354 0.51437 0.0
H69 H 0.57567 0.50857 0.48836 0.0
C70 C 0.63373 0.51058 0.53843 0.0
C71 C 0.60457 0.50948 0.52899 0.0
C72 C 0.57859 0.53105 0.53366 0.0
C73 C 0.58378 0.55346 0.54800 0.0
H74 H 0.51372 0.49403 0.55047 0.0
H75 H 0.48600 0.57775 0.52313 0.0
H76 H 0.60216 0.49417 0.51936 0.0
H77 H 0.56703 0.56776 0.55151 0.0
C78 C 0.85851 0.43823 0.63013 0.0
C79 C 0.87502 0.40325 0.62885 0.0
C80 C 0.90900 0.39748 0.63682 0.0
C81 C 0.92588 0.36266 0.63560 0.0
C82 C 0.95993 0.35716 0.64358 0.0
C83 C 0.97701 0.38649 0.65271 0.0
C84 C 0.96010 0.42124 0.65398 0.0
C85 C 0.92611 0.42673 0.64602 0.0
C86 C 0.02126 0.34492 0.66097 0.0
C87 C 0.05296 0.34546 0.67187 0.0
C88 C 0.08368 0.35259 0.66154 0.0
C89 C 0.11404 0.35957 0.67293 0.0
C90 C 0.11467 0.35538 0.69437 0.0
C91 C 0.08457 0.34508 0.70448 0.0
C92 C 0.05366 0.34017 0.69321 0.0
C93 C 0.02286 0.33263 0.70344 0.0
C94 C 0.08334 0.35552 0.64002 0.0
C95 C 0.14509 0.36268 0.70568 0.0
C96 C 0.14373 0.37118 0.66300 0.0
C97 C 0.17611 0.42083 0.65979 0.0
C98 C 0.19830 0.39744 0.64851 0.0
C99 C 0.23023 0.41002 0.64171 0.0
C100 C 0.23990 0.44595 0.64621 0.0
C101 C 0.21756 0.46943 0.65737 0.0
C102 C 0.18563 0.45685 0.66416 0.0
C103 C 0.27199 0.45830 0.63954 0.0
C104 C 0.29426 0.43461 0.62847 0.0
C105 C 0.08469 0.34157 0.72592 0.0
C106 C 0.09492 0.29967 0.75071 0.0
C107 C 0.08574 0.32783 0.76442 0.0
C108 C 0.07872 0.31923 0.78490 0.0
C109 C 0.08082 0.28247 0.79158 0.0
C110 C 0.09008 0.25435 0.77786 0.0
C111 C 0.09715 0.26295 0.75740 0.0
C112 C 0.07353 0.27368 0.81198 0.0
C113 C 0.07543 0.23682 0.81846 0.0
O114 O 0.01016 0.38127 0.66074 0.0
O115 O 0.10026 0.30785 0.73046 0.0
O116 O 0.14536 0.40815 0.66696 0.0
H117 H 0.87149 0.45967 0.63697 0.0
H118 H 0.86213 0.38174 0.62202 0.0
H119 H 0.91320 0.34100 0.62880 0.0
H120 H 0.97246 0.33142 0.64272 0.0
H121 H 0.97277 0.44287 0.66083 0.0
H122 H 0.91359 0.45245 0.64692 0.0
H123 H 0.02483 0.33530 0.64614 0.0
H124 H 0.00376 0.32902 0.66872 0.0
H125 H 0.02675 0.33614 0.71912 0.0
H126 H 0.01610 0.30572 0.70057 0.0
H127 H 0.00295 0.35062 0.69819 0.0
H128 H 0.05795 0.36085 0.63470 0.0
H129 H 0.09277 0.33087 0.63388 0.0
H130 H 0.09904 0.37662 0.63551 0.0
H131 H 0.14042 0.35998 0.72126 0.0
H132 H 0.15224 0.38936 0.70252 0.0
H133 H 0.16507 0.34431 0.70154 0.0
H134 H 0.16576 0.35723 0.66901 0.0
H135 H 0.14157 0.36676 0.64729 0.0
H136 H 0.19116 0.37079 0.64527 0.0
H137 H 0.24675 0.39272 0.63339 0.0
H138 H 0.22468 0.49608 0.66063 0.0
H139 H 0.16909 0.47414 0.67250 0.0
H140 H 0.27928 0.48489 0.64281 0.0
H141 H 0.28691 0.40804 0.62521 0.0
H142 H 0.09845 0.36235 0.73286 0.0
H143 H 0.05914 0.34238 0.73095 0.0
H144 H 0.08395 0.35498 0.75938 0.0
H145 H 0.07186 0.34002 0.79508 0.0
H146 H 0.09161 0.22715 0.78285 0.0
H147 H 0.10381 0.24216 0.74719 0.0
H148 H 0.06670 0.29436 0.82225 0.0
H149 H 0.08226 0.21622 0.80815 0.0
C150 C 0.64338 0.83090 0.39649 0.0
C151 C 0.67262 0.85076 0.40228 0.0
C152 C 0.68205 0.88095 0.39040 0.0
C153 C 0.71129 0.90102 0.39597 0.0
C154 C 0.72057 0.93113 0.38395 0.0
C155 C 0.70064 0.94105 0.36639 0.0
C156 C 0.67137 0.92106 0.36087 0.0
C157 C 0.66210 0.89099 0.37287 0.0
C158 C 0.73537 0.99047 0.36356 0.0
C159 C 0.73685 0.02115 0.35065 0.0
C160 C 0.75734 0.01939 0.33310 0.0
C161 C 0.75390 0.04762 0.31841 0.0
C162 C 0.73309 0.07927 0.32232 0.0
C163 C 0.71498 0.08227 0.34077 0.0
C164 C 0.71682 0.05313 0.35493 0.0
C165 C 0.69664 0.05489 0.37266 0.0
C166 C 0.77911 0.98824 0.32954 0.0
C167 C 0.72958 0.10729 0.30746 0.0
C168 C 0.77086 0.04416 0.29967 0.0
C169 C 0.75915 0.03677 0.26615 0.0
C170 C 0.79500 0.04114 0.26381 0.0
C171 C 0.80893 0.04278 0.24410 0.0
C172 C 0.78697 0.04004 0.22676 0.0
C173 C 0.75112 0.03538 0.22910 0.0
C174 C 0.73720 0.03375 0.24882 0.0
C175 C 0.80095 0.04202 0.20707 0.0
C176 C 0.83679 0.04683 0.20484 0.0
C177 C 0.69356 0.11341 0.34464 0.0
C178 C 0.69551 0.16897 0.35899 0.0
C179 C 0.65982 0.17260 0.35405 0.0
C180 C 0.63935 0.20082 0.36290 0.0
C181 C 0.65462 0.22524 0.37670 0.0
C182 C 0.69034 0.22161 0.38159 0.0
C183 C 0.71081 0.19345 0.37273 0.0
C184 C 0.63423 0.25328 0.38574 0.0
C185 C 0.64970 0.27736 0.39964 0.0
O186 O 0.70932 0.97067 0.35468 0.0
O187 O 0.71525 0.14040 0.35108 0.0
O188 O 0.74539 0.03628 0.28542 0.0
H189 H 0.62884 0.83861 0.38346 0.0
H190 H 0.68723 0.84313 0.41530 0.0
H191 H 0.72604 0.89359 0.40896 0.0
H192 H 0.74217 0.94606 0.38805 0.0
H193 H 0.65658 0.92856 0.34790 0.0
H194 H 0.64047 0.87614 0.36877 0.0
H195 H 0.75889 0.97537 0.36383 0.0
H196 H 0.72863 0.99862 0.37827 0.0
H197 H 0.67904 0.07723 0.37151 0.0
H198 H 0.71275 0.05788 0.38549 0.0
H199 H 0.68313 0.03081 0.37402 0.0
H200 H 0.77077 0.96618 0.33810 0.0
H201 H 0.80452 0.99388 0.33395 0.0
H202 H 0.77843 0.98170 0.31404 0.0
H203 H 0.71203 0.12762 0.31244 0.0
H204 H 0.72040 0.09624 0.29381 0.0
H205 H 0.75367 0.11854 0.30508 0.0
H206 H 0.78208 0.06881 0.29593 0.0
H207 H 0.78979 0.02300 0.30039 0.0
H208 H 0.81120 0.04331 0.27668 0.0
H209 H 0.83547 0.04609 0.24233 0.0
H210 H 0.73489 0.03323 0.21626 0.0
H211 H 0.71064 0.03045 0.25061 0.0
H212 H 0.78482 0.03998 0.19417 0.0
H213 H 0.85287 0.04885 0.21777 0.0
H214 H 0.67964 0.12190 0.33153 0.0
H215 H 0.67644 0.10736 0.35625 0.0
H216 H 0.64855 0.15430 0.34395 0.0
H217 H 0.61289 0.20355 0.35930 0.0
H218 H 0.70158 0.23972 0.39182 0.0
H219 H 0.73721 0.19057 0.37641 0.0
H220 H 0.60776 0.25617 0.38217 0.0
H221 H 0.67617 0.27436 0.40317 0.0
C222 C 0.79269 0.65844 0.62890 0.0
C223 C 0.80951 0.63788 0.64473 0.0
C224 C 0.84321 0.64668 0.65127 0.0
C225 C 0.86039 0.62630 0.66705 0.0
C226 C 0.89415 0.63525 0.67345 0.0
C227 C 0.91063 0.66451 0.66405 0.0
C228 C 0.89341 0.68493 0.64834 0.0
C229 C 0.85971 0.67600 0.64193 0.0
C230 C 0.95486 0.65476 0.68768 0.0
C231 C 0.98610 0.67139 0.69275 0.0
C232 C 0.01719 0.65908 0.68371 0.0
C233 C 0.04702 0.67986 0.68598 0.0
C234 C 0.04680 0.71040 0.69907 0.0
C235 C 0.01637 0.72072 0.70951 0.0
C236 C 0.98596 0.70121 0.70631 0.0
C237 C 0.95481 0.71317 0.71551 0.0
C238 C 0.01770 0.62774 0.67118 0.0
C239 C 0.07669 0.73123 0.70115 0.0
C240 C 0.07702 0.67052 0.67502 0.0
C241 C 0.10915 0.69147 0.64940 0.0
C242 C 0.13198 0.66169 0.65447 0.0
C243 C 0.16409 0.65762 0.64465 0.0
C244 C 0.17330 0.68335 0.62978 0.0
C245 C 0.15032 0.71300 0.62459 0.0
C246 C 0.11821 0.71706 0.63442 0.0
C247 C 0.20556 0.67936 0.62013 0.0
C248 C 0.22846 0.64973 0.62545 0.0
C249 C 0.01564 0.75161 0.72228 0.0
C250 C 0.02518 0.76730 0.75496 0.0
C251 C 0.01522 0.80319 0.74874 0.0
C252 C 0.00743 0.83001 0.76351 0.0
C253 C 0.00953 0.82082 0.78445 0.0
C254 C 0.01957 0.78493 0.79064 0.0
C255 C 0.02741 0.75814 0.77589 0.0
C256 C 0.00147 0.84743 0.79927 0.0
C257 C 0.00339 0.83788 0.82016 0.0
O258 O 0.94349 0.67369 0.67036 0.0
O259 O 0.03128 0.74063 0.74053 0.0
O260 O 0.07821 0.69605 0.65945 0.0
H261 H 0.80522 0.68007 0.62210 0.0
H262 H 0.79706 0.61623 0.65156 0.0
H263 H 0.84816 0.60460 0.67396 0.0
H264 H 0.90692 0.62024 0.68514 0.0
H265 H 0.90563 0.70668 0.64145 0.0
H266 H 0.84696 0.69106 0.63028 0.0
H267 H 0.95911 0.62700 0.68455 0.0
H268 H 0.93716 0.65839 0.69944 0.0
H269 H 0.95803 0.73893 0.72192 0.0
H270 H 0.94837 0.69466 0.72690 0.0
H271 H 0.93498 0.71483 0.70442 0.0
H272 H 0.99249 0.62267 0.66613 0.0
H273 H 0.02757 0.60526 0.67964 0.0
H274 H 0.03343 0.63182 0.65863 0.0
H275 H 0.07141 0.75366 0.71055 0.0
H276 H 0.08378 0.74041 0.68675 0.0
H277 H 0.09698 0.71502 0.70755 0.0
H278 H 0.09891 0.67213 0.68455 0.0
H279 H 0.07554 0.64421 0.66901 0.0
H280 H 0.12517 0.64275 0.66555 0.0
H281 H 0.18107 0.63563 0.64842 0.0
H282 H 0.15710 0.73197 0.61353 0.0
H283 H 0.10120 0.73908 0.63067 0.0
H284 H 0.21251 0.69831 0.60909 0.0
H285 H 0.22145 0.63081 0.63649 0.0
H286 H 0.02895 0.77304 0.71584 0.0
H287 H 0.98988 0.75998 0.72475 0.0
H288 H 0.01342 0.80981 0.73323 0.0
H289 H 0.99990 0.85661 0.75896 0.0
H290 H 0.02110 0.77820 0.80616 0.0
H291 H 0.03464 0.73151 0.78043 0.0
H292 H 0.99406 0.87408 0.79481 0.0
H293 H 0.01080 0.81119 0.82456 0.0
C294 C 0.42639 0.78156 0.39755 0.0
C295 C 0.39334 0.79908 0.39907 0.0
C296 C 0.38764 0.83483 0.39123 0.0
C297 C 0.35474 0.85274 0.39270 0.0
C298 C 0.34931 0.88856 0.38485 0.0
C299 C 0.37679 0.90636 0.37560 0.0
C300 C 0.40961 0.88842 0.37408 0.0
C301 C 0.41504 0.85266 0.38191 0.0
C302 C 0.33717 0.95303 0.36771 0.0
C303 C 0.33734 0.98631 0.35690 0.0
C304 C 0.34461 0.01884 0.36727 0.0
C305 C 0.35085 0.05067 0.35593 0.0
C306 C 0.34601 0.05104 0.33452 0.0
C307 C 0.33575 0.01918 0.32438 0.0
C308 C 0.33147 0.98675 0.33559 0.0
C309 C 0.32381 0.95414 0.32531 0.0
C310 C 0.34825 0.01877 0.38878 0.0
C311 C 0.35257 0.08294 0.32326 0.0
C312 C 0.36235 0.08210 0.36588 0.0
C313 C 0.40963 0.11616 0.36890 0.0
C314 C 0.38798 0.13979 0.38038 0.0
C315 C 0.40027 0.17353 0.38720 0.0
C316 C 0.43418 0.18357 0.38252 0.0
C317 C 0.45592 0.15978 0.37117 0.0
C318 C 0.44362 0.12604 0.36435 0.0
C319 C 0.44625 0.21748 0.38922 0.0
C320 C 0.42431 0.24119 0.40049 0.0
C321 C 0.33155 0.01901 0.30296 0.0
C322 C 0.29086 0.02956 0.27844 0.0
C323 C 0.31698 0.01961 0.26454 0.0
C324 C 0.30797 0.01194 0.24409 0.0
C325 C 0.27286 0.01415 0.23762 0.0
C326 C 0.24679 0.02420 0.25153 0.0
C327 C 0.25580 0.03192 0.27196 0.0
C328 C 0.26368 0.00620 0.21725 0.0
C329 C 0.22849 0.00821 0.21098 0.0
O330 O 0.37161 0.94122 0.36770 0.0
O331 O 0.29945 0.03546 0.29865 0.0
O332 O 0.39723 0.08366 0.36172 0.0
H333 H 0.44648 0.79509 0.39062 0.0
H334 H 0.37319 0.78564 0.40599 0.0
H335 H 0.33444 0.83953 0.39959 0.0
H336 H 0.32498 0.90186 0.38589 0.0
H337 H 0.42988 0.90162 0.36715 0.0
H338 H 0.43935 0.83938 0.38083 0.0
H339 H 0.32867 0.95703 0.38261 0.0
H340 H 0.32174 0.93451 0.36000 0.0
H341 H 0.32651 0.95801 0.30962 0.0
H342 H 0.29840 0.94713 0.32831 0.0
H343 H 0.34102 0.93317 0.33040 0.0
H344 H 0.35345 0.99205 0.39400 0.0
H345 H 0.32517 0.02888 0.39509 0.0
H346 H 0.36849 0.03535 0.39322 0.0
H347 H 0.34935 0.07781 0.30768 0.0
H348 H 0.37799 0.09046 0.32628 0.0
H349 H 0.33538 0.10413 0.32756 0.0
H350 H 0.34895 0.10529 0.36002 0.0
H351 H 0.35879 0.08006 0.38161 0.0
H352 H 0.36283 0.13237 0.38376 0.0
H353 H 0.38426 0.19112 0.39567 0.0
H354 H 0.48106 0.16717 0.36777 0.0
H355 H 0.45962 0.10843 0.35586 0.0
H356 H 0.47134 0.22504 0.38581 0.0
H357 H 0.39924 0.23355 0.40388 0.0
H358 H 0.35101 0.03337 0.29594 0.0
H359 H 0.33204 0.99199 0.29785 0.0
H360 H 0.34290 0.01771 0.26942 0.0
H361 H 0.32724 0.00449 0.23376 0.0
H362 H 0.22082 0.02581 0.24670 0.0
H363 H 0.23652 0.03914 0.28232 0.0
H364 H 0.28285 0.99879 0.20684 0.0
H365 H 0.20940 0.01562 0.22143 0.0
C366 C 0.66839 0.49019 0.54903 0.0
C367 C 0.69704 0.48186 0.56215 0.0
C368 C 0.72571 0.47354 0.57529 0.0
C369 C 0.75440 0.46526 0.58837 0.0
C370 C 0.78323 0.45704 0.60140 0.0
C371 C 0.81209 0.44886 0.61438 0.0
C372 C 0.57847 0.45579 0.46852 0.0
C373 C 0.58947 0.42562 0.45664 0.0
C374 C 0.60046 0.39543 0.44475 0.0
C375 C 0.61136 0.36525 0.43287 0.0
C376 C 0.62211 0.33499 0.42096 0.0
C377 C 0.63277 0.30474 0.40905 0.0
C378 C 0.42123 0.58749 0.54871 0.0
C379 C 0.39226 0.59755 0.56052 0.0
C380 C 0.36327 0.60762 0.57235 0.0
C381 C 0.33437 0.61770 0.58421 0.0
C382 C 0.30553 0.62781 0.59616 0.0
C383 C 0.27678 0.63793 0.60814 0.0
C384 C 0.58409 0.65161 0.48351 0.0
C385 C 0.59318 0.67935 0.46979 0.0
C386 C 0.60228 0.70710 0.45605 0.0
C387 C 0.61143 0.73476 0.44230 0.0
C388 C 0.62069 0.76234 0.42850 0.0
C389 C 0.63000 0.78984 0.41468 0.0
C390 C 0.49157 0.41821 0.48276 0.0
C391 C 0.48125 0.39107 0.46893 0.0
C392 C 0.47091 0.36391 0.45509 0.0
C393 C 0.46051 0.33676 0.44131 0.0
C394 C 0.44998 0.30954 0.42756 0.0
C395 C 0.43938 0.28233 0.41385 0.0
C396 C 0.46022 0.50171 0.56607 0.0
C397 C 0.43203 0.49008 0.57753 0.0
C398 C 0.40382 0.47844 0.58900 0.0
C399 C 0.37557 0.46686 0.60041 0.0
C400 C 0.34720 0.45535 0.61178 0.0
C401 C 0.31879 0.44388 0.62310 0.0
C402 C 0.50105 0.60874 0.46830 0.0
C403 C 0.48730 0.63737 0.45574 0.0
C404 C 0.47353 0.66603 0.44316 0.0
C405 C 0.45985 0.69462 0.43055 0.0
C406 C 0.44624 0.72320 0.41787 0.0
C407 C 0.43270 0.75172 0.40515 0.0
C408 C 0.62080 0.57370 0.56697 0.0
C409 C 0.64892 0.58860 0.57773 0.0
C410 C 0.67707 0.60350 0.58850 0.0
C411 C 0.70513 0.61839 0.59930 0.0
C412 C 0.73314 0.63328 0.61020 0.0
C413 C 0.76108 0.64816 0.62113 0.0
C414 C 0.96032 0.01957 0.07476 0.0
C415 C 0.94232 0.02408 0.09318 0.0
C416 C 0.92431 0.02864 0.11160 0.0
C417 C 0.89786 0.00471 0.11657 0.0
C418 C 0.87987 0.00925 0.13499 0.0
C419 C 0.88830 0.03776 0.14842 0.0
C420 C 0.91476 0.06169 0.14345 0.0
C421 C 0.93277 0.05712 0.12504 0.0
C422 C 0.87030 0.04230 0.16684 0.0
C423 C 0.85232 0.04688 0.18525 0.0
H424 H 0.89158 0.98363 0.10662 0.0
H425 H 0.86030 0.99152 0.13868 0.0
H426 H 0.92101 0.08278 0.15339 0.0
H427 H 0.95237 0.07483 0.12135 0.0
C428 C 0.05111 0.09594 0.94840 0.0
C429 C 0.05414 0.11689 0.93041 0.0
C430 C 0.05711 0.13784 0.91243 0.0
C431 C 0.08271 0.16428 0.91123 0.0
C432 C 0.08570 0.18522 0.89324 0.0
C433 C 0.06306 0.17974 0.87646 0.0
C434 C 0.03746 0.15330 0.87766 0.0
C435 C 0.03449 0.13234 0.89564 0.0
C436 C 0.06605 0.20068 0.85848 0.0
C437 C 0.06900 0.22161 0.84048 0.0
H438 H 0.09945 0.16836 0.92366 0.0
H439 H 0.10467 0.20477 0.89235 0.0
H440 H 0.02071 0.14924 0.86523 0.0
H441 H 0.01555 0.11275 0.89652 0.0
C442 C 0.10634 0.03186 0.07952 0.0
C443 C 0.12476 0.02721 0.09823 0.0
C444 C 0.14321 0.02253 0.11692 0.0
C445 C 0.14690 0.05249 0.13016 0.0
C446 C 0.16533 0.04781 0.14885 0.0
C447 C 0.18011 0.01318 0.15429 0.0
C448 C 0.17642 0.98322 0.14105 0.0
C449 C 0.15796 0.98789 0.12237 0.0
C450 C 0.19855 0.00850 0.17299 0.0
C451 C 0.21700 0.00379 0.19167 0.0
H452 H 0.13599 0.07814 0.12612 0.0
H453 H 0.16804 0.06998 0.15866 0.0
H454 H 0.18735 0.95758 0.14509 0.0
H455 H 0.15522 0.96571 0.11257 0.0
C456 C 0.01458 0.96764 0.95275 0.0
C457 C 0.01191 0.95022 0.93364 0.0
C458 C 0.00927 0.93283 0.91453 0.0
C459 C 0.00910 0.89431 0.91351 0.0
C460 C 0.00644 0.87692 0.89440 0.0
C461 C 0.00399 0.89805 0.87631 0.0
C462 C 0.00415 0.93656 0.87733 0.0
C463 C 0.00678 0.95395 0.89645 0.0
C464 C 0.00133 0.88065 0.85720 0.0
C465 C 0.99868 0.86329 0.83808 0.0
H466 H 0.01096 0.87868 0.92690 0.0
H467 H 0.00629 0.84842 0.89364 0.0
H468 H 0.00232 0.95219 0.86394 0.0
H469 H 0.00689 0.98246 0.89720 0.0
