data_{}
_symmetry_space_group_name_H-M    P1
_symmetry_Int_Tables_number       1
_symmetry_cell_setting            triclinic
loop_
_symmetry_equiv_pos_as_xyz
'x, y, z'
_cell_length_a     75.611
_cell_length_b     76.136
_cell_length_c     44.674
_cell_angle_alpha  89.917
_cell_angle_beta   90.331
_cell_angle_gamma  121.311
loop_
_atom_site_label
_atom_site_type_symbol
_atom_site_fract_x
_atom_site_fract_y
_atom_site_fract_z
_atom_type_partial_charge
C0 C 0.05542 0.04092 0.00589 0.0
C1 C 0.05083 0.05840 0.00593 0.0
C2 C 0.02828 0.05331 0.00587 0.0
C3 C 0.01031 0.03074 0.00577 0.0
C4 C 0.01490 0.01326 0.00573 0.0
C5 C 0.03746 0.01835 0.00579 0.0
O6 O 0.04196 0.00121 0.00575 0.0
H7 H 0.02916 0.98819 0.00569 0.0
O8 O 0.06845 0.08053 0.00602 0.0
H9 H 0.06297 0.08943 0.00604 0.0
O10 O 0.98820 0.02575 0.00571 0.0
H11 H 0.97897 0.01111 0.00565 0.0
C12 C 0.92327 0.35878 0.81034 0.0
C13 C 0.90825 0.33983 0.82902 0.0
C14 C 0.91645 0.33367 0.85619 0.0
C15 C 0.90163 0.31472 0.87506 0.0
C16 C 0.91001 0.30865 0.90216 0.0
C17 C 0.93316 0.32152 0.91028 0.0
C18 C 0.94794 0.34049 0.89149 0.0
C19 C 0.93959 0.34655 0.86443 0.0
C20 C 0.92455 0.29896 0.95549 0.0
C21 C 0.93632 0.29794 0.98285 0.0
C22 C 0.94620 0.28469 0.98176 0.0
C23 C 0.96127 0.28686 0.00677 0.0
C24 C 0.96445 0.30026 0.03446 0.0
C25 C 0.95295 0.31198 0.03673 0.0
C26 C 0.93890 0.31084 0.01085 0.0
C27 C 0.92876 0.32389 0.01195 0.0
C28 C 0.94237 0.27066 0.95457 0.0
C29 C 0.97970 0.30248 0.05928 0.0
C30 C 0.97342 0.27589 0.00405 0.0
C31 C 0.00894 0.28347 0.99684 0.0
C32 C 0.99990 0.26027 0.00182 0.0
C33 C 0.01348 0.25125 0.00355 0.0
C34 C 0.03708 0.26546 0.00010 0.0
C35 C 0.04660 0.28866 0.99507 0.0
C36 C 0.03251 0.29767 0.99334 0.0
C37 C 0.05111 0.25641 0.00235 0.0
C38 C 0.04147 0.23321 0.00772 0.0
C39 C 0.95637 0.32578 0.06393 0.0
C40 C 0.94226 0.32441 0.11375 0.0
C41 C 0.95864 0.34749 0.11588 0.0
C42 C 0.95704 0.36069 0.14054 0.0
C43 C 0.93902 0.35076 0.16293 0.0
C44 C 0.92269 0.32766 0.16081 0.0
C45 C 0.92431 0.31447 0.13620 0.0
C46 C 0.93722 0.36390 0.18744 0.0
C47 C 0.91905 0.35385 0.20953 0.0
O48 O 0.94145 0.31585 0.93693 0.0
O49 O 0.94323 0.31170 0.08877 0.0
O50 O 0.99523 0.29238 0.99613 0.0
H51 H 0.94038 0.36817 0.81669 0.0
H52 H 0.89113 0.33039 0.82274 0.0
H53 H 0.88450 0.30519 0.86897 0.0
H54 H 0.89908 0.29465 0.91619 0.0
H55 H 0.96507 0.35005 0.89764 0.0
H56 H 0.95052 0.36057 0.85047 0.0
H57 H 0.91656 0.28377 0.94271 0.0
H58 H 0.91287 0.30331 0.96267 0.0
H59 H 0.93566 0.33524 0.03136 0.0
H60 H 0.91135 0.31347 0.01521 0.0
H61 H 0.93186 0.33268 0.99002 0.0
H62 H 0.93696 0.27610 0.93466 0.0
H63 H 0.92988 0.25422 0.96041 0.0
H64 H 0.95723 0.27111 0.94858 0.0
H65 H 0.98078 0.31379 0.07695 0.0
H66 H 0.99560 0.30843 0.04902 0.0
H67 H 0.97408 0.28687 0.07004 0.0
H68 H 0.97332 0.26858 0.02639 0.0
H69 H 0.96649 0.26368 0.98572 0.0
H70 H 0.98193 0.24979 0.00435 0.0
H71 H 0.00646 0.23408 0.00731 0.0
H72 H 0.06406 0.29916 0.99255 0.0
H73 H 0.03953 0.31486 0.98959 0.0
H74 H 0.06859 0.26685 0.99990 0.0
H75 H 0.02399 0.22281 0.01011 0.0
H76 H 0.97335 0.33476 0.07100 0.0
H77 H 0.95099 0.33687 0.05810 0.0
H78 H 0.97185 0.35482 0.09910 0.0
H79 H 0.96912 0.37780 0.14215 0.0
H80 H 0.90936 0.32036 0.17742 0.0
H81 H 0.91216 0.29740 0.13446 0.0
H82 H 0.94928 0.38102 0.18919 0.0
H83 H 0.90703 0.33673 0.20769 0.0
C84 C 0.47722 0.15836 0.20823 0.0
C85 C 0.47248 0.13943 0.18945 0.0
C86 C 0.45781 0.13320 0.16226 0.0
C87 C 0.45287 0.11427 0.14330 0.0
C88 C 0.43812 0.10813 0.11619 0.0
C89 C 0.42833 0.12091 0.10815 0.0
C90 C 0.43333 0.13986 0.12704 0.0
C91 C 0.44805 0.14599 0.15411 0.0
C92 C 0.41339 0.09832 0.06285 0.0
C93 C 0.40049 0.09722 0.03550 0.0
C94 C 0.37675 0.08387 0.03655 0.0
C95 C 0.36389 0.08596 0.01157 0.0
C96 C 0.37467 0.09937 0.98394 0.0
C97 C 0.39843 0.11118 0.98170 0.0
C98 C 0.41135 0.11013 0.00755 0.0
C99 C 0.43515 0.12328 0.00649 0.0
C100 C 0.36596 0.06984 0.06369 0.0
C101 C 0.36167 0.10151 0.95915 0.0
C102 C 0.34025 0.07489 0.01427 0.0
C103 C 0.31255 0.08231 0.02156 0.0
C104 C 0.29789 0.05909 0.01648 0.0
C105 C 0.27435 0.04997 0.01473 0.0
C106 C 0.26553 0.06409 0.01807 0.0
C107 C 0.28021 0.08731 0.02340 0.0
C108 C 0.30374 0.09642 0.02515 0.0
C109 C 0.24200 0.05493 0.01601 0.0
C110 C 0.22745 0.03172 0.01054 0.0
C111 C 0.40939 0.12500 0.95455 0.0
C112 C 0.42208 0.12369 0.90471 0.0
C113 C 0.42975 0.14675 0.90269 0.0
C114 C 0.44511 0.15998 0.87808 0.0
C115 C 0.45280 0.15011 0.85562 0.0
C116 C 0.44507 0.12704 0.85763 0.0
C117 C 0.42969 0.11381 0.88219 0.0
C118 C 0.46831 0.16329 0.83116 0.0
C119 C 0.47603 0.15330 0.80900 0.0
O120 O 0.41408 0.11517 0.08149 0.0
O121 O 0.40786 0.11094 0.92964 0.0
O122 O 0.33560 0.09131 0.02229 0.0
H123 H 0.46986 0.16768 0.20193 0.0
H124 H 0.47980 0.13007 0.19567 0.0
H125 H 0.46011 0.10481 0.14933 0.0
H126 H 0.43445 0.09414 0.10209 0.0
H127 H 0.42612 0.14934 0.12095 0.0
H128 H 0.45173 0.15999 0.16814 0.0
H129 H 0.40555 0.08313 0.07555 0.0
H130 H 0.42963 0.10274 0.05566 0.0
H131 H 0.44007 0.13461 0.98713 0.0
H132 H 0.44173 0.11292 0.00317 0.0
H133 H 0.44123 0.13208 0.02845 0.0
H134 H 0.37708 0.07533 0.08361 0.0
H135 H 0.36132 0.05341 0.05777 0.0
H136 H 0.35153 0.07021 0.06970 0.0
H137 H 0.37239 0.11284 0.94153 0.0
H138 H 0.35196 0.10739 0.96946 0.0
H139 H 0.35101 0.08588 0.94832 0.0
H140 H 0.33270 0.06756 0.99190 0.0
H141 H 0.33446 0.06269 0.03254 0.0
H142 H 0.30446 0.04867 0.01388 0.0
H143 H 0.26347 0.03278 0.01090 0.0
H144 H 0.27366 0.09774 0.02599 0.0
H145 H 0.31465 0.11362 0.02897 0.0
H146 H 0.23538 0.06531 0.01849 0.0
H147 H 0.23412 0.02139 0.00808 0.0
H148 H 0.40174 0.13391 0.94754 0.0
H149 H 0.42637 0.13615 0.96042 0.0
H150 H 0.42416 0.15402 0.91951 0.0
H151 H 0.45086 0.17707 0.87655 0.0
H152 H 0.45080 0.11978 0.84098 0.0
H153 H 0.42405 0.09675 0.88385 0.0
H154 H 0.47409 0.18039 0.82949 0.0
H155 H 0.47022 0.13620 0.81076 0.0
C156 C 0.70538 0.59016 0.80826 0.0
C157 C 0.72451 0.59510 0.82723 0.0
C158 C 0.73058 0.60960 0.85435 0.0
C159 C 0.74971 0.61475 0.87350 0.0
C160 C 0.75568 0.62933 0.90056 0.0
C161 C 0.74254 0.63874 0.90835 0.0
C162 C 0.72339 0.63355 0.88928 0.0
C163 C 0.71743 0.61899 0.86226 0.0
C164 C 0.76520 0.65375 0.95380 0.0
C165 C 0.76608 0.66642 0.98105 0.0
C166 C 0.77925 0.69001 0.97995 0.0
C167 C 0.77691 0.70261 0.00479 0.0
C168 C 0.76344 0.69173 0.03234 0.0
C169 C 0.75183 0.66814 0.03466 0.0
C170 C 0.75313 0.65547 0.00894 0.0
C171 C 0.74016 0.63183 0.01005 0.0
C172 C 0.79335 0.70091 0.95288 0.0
C173 C 0.76105 0.70446 0.05699 0.0
C174 C 0.78777 0.72607 0.00201 0.0
C175 C 0.77980 0.75324 0.99438 0.0
C176 C 0.80313 0.76804 0.99990 0.0
C177 C 0.81201 0.79136 0.00126 0.0
C178 C 0.79753 0.79982 0.99768 0.0
C179 C 0.77420 0.78501 0.99219 0.0
C180 C 0.76533 0.76169 0.99054 0.0
C181 C 0.80645 0.82313 0.99990 0.0
C182 C 0.82977 0.83784 0.00526 0.0
C183 C 0.73796 0.65708 0.06173 0.0
C184 C 0.73946 0.64453 0.11171 0.0
C185 C 0.71617 0.63660 0.11351 0.0
C186 C 0.70296 0.62122 0.13809 0.0
C187 C 0.71309 0.61377 0.16074 0.0
C188 C 0.73639 0.62176 0.15895 0.0
C189 C 0.74959 0.63716 0.13441 0.0
C190 C 0.69993 0.59825 0.18518 0.0
C191 C 0.71018 0.59077 0.20753 0.0
O192 O 0.74812 0.65283 0.93496 0.0
O193 O 0.75219 0.65878 0.08680 0.0
O194 O 0.77102 0.73039 0.99375 0.0
H195 H 0.69579 0.59724 0.81437 0.0
H196 H 0.73414 0.58805 0.82119 0.0
H197 H 0.75943 0.60778 0.86765 0.0
H198 H 0.76981 0.63314 0.91480 0.0
H199 H 0.71364 0.64048 0.89519 0.0
H200 H 0.70328 0.61517 0.84810 0.0
H201 H 0.78050 0.66173 0.94121 0.0
H202 H 0.76097 0.63767 0.96107 0.0
H203 H 0.72872 0.62677 0.02931 0.0
H204 H 0.75079 0.62551 0.01355 0.0
H205 H 0.73134 0.62573 0.98803 0.0
H206 H 0.78797 0.68991 0.93299 0.0
H207 H 0.80995 0.70574 0.95896 0.0
H208 H 0.79275 0.71512 0.94674 0.0
H209 H 0.74970 0.69369 0.07457 0.0
H210 H 0.75492 0.71395 0.04653 0.0
H211 H 0.77673 0.71519 0.06792 0.0
H212 H 0.79507 0.73358 0.02440 0.0
H213 H 0.80007 0.73199 0.98384 0.0
H214 H 0.81381 0.76173 0.00240 0.0
H215 H 0.82928 0.80235 0.00521 0.0
H216 H 0.76350 0.79129 0.98942 0.0
H217 H 0.74804 0.75067 0.98661 0.0
H218 H 0.79581 0.82950 0.99697 0.0
H219 H 0.84037 0.83143 0.00791 0.0
H220 H 0.72878 0.66446 0.06857 0.0
H221 H 0.72692 0.64020 0.05588 0.0
H222 H 0.70870 0.64201 0.09654 0.0
H223 H 0.68570 0.61528 0.13947 0.0
H224 H 0.74384 0.61621 0.17574 0.0
H225 H 0.76682 0.64299 0.13291 0.0
H226 H 0.68267 0.59228 0.18669 0.0
H227 H 0.72745 0.59678 0.20592 0.0
Zn228 Zn 0.70509 0.37014 0.50578 0.0
N229 N 0.67680 0.36180 0.52886 0.0
C230 C 0.66658 0.37035 0.51791 0.0
C231 C 0.66794 0.34699 0.54960 0.0
C232 C 0.64643 0.36406 0.52746 0.0
C233 C 0.64813 0.33997 0.55971 0.0
C234 C 0.63694 0.34780 0.54764 0.0
N235 N 0.72552 0.39633 0.53326 0.0
H236 H 0.67547 0.34118 0.55753 0.0
H237 H 0.63951 0.37069 0.52033 0.0
H238 H 0.62288 0.34222 0.55299 0.0
C239 C 0.68869 0.32667 0.48820 0.0
C240 C 0.67587 0.34100 0.45538 0.0
C241 C 0.67599 0.30708 0.47539 0.0
C242 C 0.66288 0.32219 0.44200 0.0
C243 C 0.66218 0.30499 0.45289 0.0
H244 H 0.71735 0.40345 0.45437 0.0
H245 H 0.65795 0.39788 0.49341 0.0
H246 H 0.67910 0.42522 0.46065 0.0
C247 C 0.74476 0.40777 0.52292 0.0
C248 C 0.71942 0.40301 0.55648 0.0
C249 C 0.75897 0.42697 0.53570 0.0
H250 H 0.70574 0.39460 0.56392 0.0
C251 C 0.73253 0.42180 0.56985 0.0
H252 H 0.77286 0.43472 0.52890 0.0
C253 C 0.75203 0.43427 0.55860 0.0
H254 H 0.76073 0.44775 0.56635 0.0
C255 C 0.75015 0.39926 0.49707 0.0
H256 H 0.67596 0.35282 0.44819 0.0
C257 C 0.73805 0.37452 0.45979 0.0
C258 C 0.77074 0.40747 0.48775 0.0
H259 H 0.67681 0.29564 0.48191 0.0
C260 C 0.75788 0.38169 0.44969 0.0
C261 C 0.77437 0.39756 0.46452 0.0
H262 H 0.65240 0.29178 0.44516 0.0
N263 N 0.69455 0.38822 0.48346 0.0
H264 H 0.72668 0.36320 0.44986 0.0
C265 C 0.70287 0.33026 0.51368 0.0
N266 N 0.68836 0.34301 0.47824 0.0
C267 C 0.72391 0.35275 0.55078 0.0
C268 C 0.70791 0.31562 0.52251 0.0
H269 H 0.78179 0.41937 0.49703 0.0
C270 C 0.72966 0.33916 0.56039 0.0
C271 C 0.72245 0.32096 0.54539 0.0
C272 C 0.67749 0.38652 0.49493 0.0
H273 H 0.78813 0.40179 0.45901 0.0
C274 C 0.70534 0.40255 0.46268 0.0
C275 C 0.67050 0.39962 0.48590 0.0
C276 C 0.69944 0.41602 0.45306 0.0
N277 N 0.73443 0.38315 0.48325 0.0
C278 C 0.68256 0.41524 0.46567 0.0
N279 N 0.71087 0.34830 0.52764 0.0
H280 H 0.72932 0.36557 0.56083 0.0
H281 H 0.70161 0.30252 0.51313 0.0
H282 H 0.72729 0.31207 0.55054 0.0
C283 C 0.88553 0.37971 0.74682 0.0
C284 C 0.86958 0.35892 0.73262 0.0
C285 C 0.87068 0.33966 0.73922 0.0
C286 C 0.88776 0.34118 0.75998 0.0
C287 C 0.90372 0.36197 0.77415 0.0
C288 C 0.90260 0.38123 0.76758 0.0
C289 C 0.85254 0.35741 0.71179 0.0
C290 C 0.83552 0.35589 0.69091 0.0
C291 C 0.81851 0.35437 0.67000 0.0
C292 C 0.80152 0.35284 0.64904 0.0
C293 C 0.78455 0.35131 0.62805 0.0
C294 C 0.76886 0.33059 0.61343 0.0
C295 C 0.75194 0.32907 0.59233 0.0
C296 C 0.75070 0.34828 0.58587 0.0
C297 C 0.76637 0.36899 0.60052 0.0
C298 C 0.78329 0.37051 0.62161 0.0
H299 H 0.88470 0.39397 0.74196 0.0
H300 H 0.85887 0.32427 0.72872 0.0
H301 H 0.88858 0.32692 0.76485 0.0
H302 H 0.91441 0.39662 0.77809 0.0
H303 H 0.76979 0.31637 0.61820 0.0
H304 H 0.74034 0.31374 0.58149 0.0
H305 H 0.76544 0.38320 0.59575 0.0
H306 H 0.79490 0.38585 0.63244 0.0
C307 C 0.52920 0.20425 0.24336 0.0
C308 C 0.52839 0.19971 0.27709 0.0
C309 C 0.51033 0.17957 0.28984 0.0
C310 C 0.49306 0.16396 0.26886 0.0
C311 C 0.49386 0.16850 0.23513 0.0
C312 C 0.51194 0.18864 0.22238 0.0
C313 C 0.54562 0.21535 0.29809 0.0
C314 C 0.56283 0.23099 0.31911 0.0
C315 C 0.58001 0.24663 0.34016 0.0
C316 C 0.59717 0.26229 0.36122 0.0
C317 C 0.61431 0.27796 0.38230 0.0
C318 C 0.61325 0.27356 0.41610 0.0
C319 C 0.63034 0.28926 0.43720 0.0
C320 C 0.64850 0.30935 0.42450 0.0
C321 C 0.64958 0.31374 0.39068 0.0
C322 C 0.63248 0.29804 0.36959 0.0
H323 H 0.54258 0.21916 0.23392 0.0
H324 H 0.50973 0.17621 0.31481 0.0
H325 H 0.47969 0.14905 0.27829 0.0
H326 H 0.51253 0.19200 0.19741 0.0
H327 H 0.59980 0.25869 0.42551 0.0
H328 H 0.62954 0.28601 0.46223 0.0
H329 H 0.66303 0.32860 0.38128 0.0
H330 H 0.63328 0.30129 0.34455 0.0
C331 C 0.52933 0.21162 0.77132 0.0
C332 C 0.52896 0.20778 0.73743 0.0
C333 C 0.51269 0.18680 0.72409 0.0
C334 C 0.49680 0.16965 0.74466 0.0
C335 C 0.49717 0.17348 0.77856 0.0
C336 C 0.51344 0.19447 0.79189 0.0
C337 C 0.54489 0.22491 0.71687 0.0
C338 C 0.56084 0.24202 0.69631 0.0
C339 C 0.57680 0.25911 0.67573 0.0
C340 C 0.59278 0.27618 0.65515 0.0
C341 C 0.60877 0.29324 0.63457 0.0
C342 C 0.60862 0.28922 0.60077 0.0
C343 C 0.62467 0.30624 0.58021 0.0
C344 C 0.64086 0.32728 0.59343 0.0
C345 C 0.64100 0.33131 0.62723 0.0
C346 C 0.62495 0.31428 0.64780 0.0
H347 H 0.54136 0.22715 0.78119 0.0
H348 H 0.51241 0.18397 0.69900 0.0
H349 H 0.48476 0.15412 0.73479 0.0
H350 H 0.51370 0.19731 0.81698 0.0
H351 H 0.59663 0.27363 0.59098 0.0
H352 H 0.62456 0.30326 0.55519 0.0
H353 H 0.65298 0.34689 0.63702 0.0
H354 H 0.62506 0.31726 0.67282 0.0
C355 C 0.68798 0.54998 0.28483 0.0
C356 C 0.70045 0.53987 0.27675 0.0
C357 C 0.71314 0.54592 0.24769 0.0
C358 C 0.71333 0.56207 0.22668 0.0
C359 C 0.70085 0.57217 0.23474 0.0
C360 C 0.68818 0.56613 0.26382 0.0
C361 C 0.70020 0.52367 0.29772 0.0
C362 C 0.69994 0.50745 0.31865 0.0
C363 C 0.69966 0.49120 0.33954 0.0
C364 C 0.69936 0.47492 0.36039 0.0
C365 C 0.69904 0.45862 0.38122 0.0
C366 C 0.71120 0.44825 0.37280 0.0
C367 C 0.71081 0.43189 0.39356 0.0
C368 C 0.69826 0.42591 0.42275 0.0
C369 C 0.68612 0.43631 0.43119 0.0
C370 C 0.68651 0.45266 0.41042 0.0
H371 H 0.67860 0.54551 0.30635 0.0
H372 H 0.72238 0.53844 0.24172 0.0
H373 H 0.72272 0.56655 0.20516 0.0
H374 H 0.67895 0.57362 0.26979 0.0
H375 H 0.72048 0.45267 0.35118 0.0
H376 H 0.71980 0.42420 0.38731 0.0
H377 H 0.67684 0.43189 0.45281 0.0
H378 H 0.67751 0.46035 0.41667 0.0
C379 C 0.69356 0.54810 0.72485 0.0
C380 C 0.70736 0.53980 0.73494 0.0
C381 C 0.71879 0.54650 0.76525 0.0
C382 C 0.71643 0.56151 0.78547 0.0
C383 C 0.70263 0.56982 0.77537 0.0
C384 C 0.69119 0.56311 0.74506 0.0
C385 C 0.70978 0.52484 0.71468 0.0
C386 C 0.71223 0.50990 0.69441 0.0
C387 C 0.71471 0.49498 0.67414 0.0
C388 C 0.71723 0.48010 0.65386 0.0
C389 C 0.71978 0.46523 0.63356 0.0
C390 C 0.73391 0.45728 0.64345 0.0
C391 C 0.73653 0.44248 0.62310 0.0
C392 C 0.72501 0.43563 0.59288 0.0
C393 C 0.71085 0.44357 0.58300 0.0
C394 C 0.70824 0.45837 0.60335 0.0
H395 H 0.68508 0.54313 0.70241 0.0
H396 H 0.72900 0.54035 0.77273 0.0
H397 H 0.72489 0.56647 0.80791 0.0
H398 H 0.68097 0.56925 0.73760 0.0
H399 H 0.74245 0.46235 0.66583 0.0
H400 H 0.74701 0.43660 0.63041 0.0
H401 H 0.70231 0.43849 0.56063 0.0
H402 H 0.69776 0.46426 0.59603 0.0
C403 C 0.89837 0.38634 0.27142 0.0
C404 C 0.87867 0.36659 0.28175 0.0
C405 C 0.87415 0.34547 0.27077 0.0
C406 C 0.88932 0.34411 0.24943 0.0
C407 C 0.90901 0.36387 0.23909 0.0
C408 C 0.91354 0.38499 0.25009 0.0
C409 C 0.86347 0.36795 0.30302 0.0
C410 C 0.84824 0.36930 0.32425 0.0
C411 C 0.83299 0.37064 0.34544 0.0
C412 C 0.81771 0.37197 0.36659 0.0
C413 C 0.80242 0.37330 0.38770 0.0
C414 C 0.78253 0.35354 0.39753 0.0
C415 C 0.76719 0.35487 0.41854 0.0
C416 C 0.77175 0.37595 0.42974 0.0
C417 C 0.79165 0.39571 0.41994 0.0
C418 C 0.80698 0.39438 0.39892 0.0
H419 H 0.90173 0.40198 0.27957 0.0
H420 H 0.85957 0.33085 0.27843 0.0
H421 H 0.88597 0.32848 0.24130 0.0
H422 H 0.92813 0.39961 0.24244 0.0
H423 H 0.77916 0.33793 0.38922 0.0
H424 H 0.75246 0.34024 0.42579 0.0
H425 H 0.79502 0.41131 0.42824 0.0
H426 H 0.82172 0.40901 0.39166 0.0
C427 C 0.03564 0.12399 0.00721 0.0
C428 C 0.03736 0.13378 0.97635 0.0
C429 C 0.04068 0.15553 0.97679 0.0
C430 C 0.04188 0.16463 0.00802 0.0
C431 C 0.05871 0.16230 0.02379 0.0
C432 C 0.05537 0.14055 0.02336 0.0
C433 C 0.01855 0.12597 0.02248 0.0
C434 C 0.02189 0.14772 0.02291 0.0
C435 C 0.03229 0.10223 0.00675 0.0
C436 C 0.02892 0.08047 0.00628 0.0
C437 C 0.04520 0.18637 0.00844 0.0
C438 C 0.04851 0.20811 0.00887 0.0
H439 H 0.03616 0.12496 0.95508 0.0
H440 H 0.04210 0.16382 0.95486 0.0
H441 H 0.07252 0.17620 0.03482 0.0
H442 H 0.06715 0.13757 0.03456 0.0
H443 H 0.00456 0.11184 0.03253 0.0
H444 H 0.00993 0.15046 0.03381 0.0
C445 C 0.12082 0.03652 0.00719 0.0
C446 C 0.11964 0.01990 0.98622 0.0
C447 C 0.13865 0.01751 0.98661 0.0
C448 C 0.15634 0.03203 0.00794 0.0
C449 C 0.14511 0.02838 0.03803 0.0
C450 C 0.12610 0.03078 0.03763 0.0
C451 C 0.14150 0.05574 0.99826 0.0
C452 C 0.16050 0.05333 0.99866 0.0
C453 C 0.10182 0.03892 0.00676 0.0
C454 C 0.08282 0.04133 0.00630 0.0
C455 C 0.17535 0.02963 0.00832 0.0
C456 C 0.19436 0.02725 0.00868 0.0
H457 H 0.10530 0.01031 0.97169 0.0
H458 H 0.13897 0.00554 0.97169 0.0
H459 H 0.15101 0.02419 0.05875 0.0
H460 H 0.11695 0.02833 0.05901 0.0
H461 H 0.14201 0.07050 0.99190 0.0
H462 H 0.17637 0.06687 0.99233 0.0
C463 C 0.94168 0.94624 0.00611 0.0
C464 C 0.93365 0.93521 0.97580 0.0
C465 C 0.91166 0.91606 0.97593 0.0
C466 C 0.90057 0.91047 0.00635 0.0
C467 C 0.90232 0.93075 0.01587 0.0
C468 C 0.92432 0.94989 0.01574 0.0
C469 C 0.93840 0.92867 0.02696 0.0
C470 C 0.91640 0.90953 0.02709 0.0
C471 C 0.96368 0.96537 0.00597 0.0
C472 C 0.98570 0.98449 0.00582 0.0
C473 C 0.87857 0.89131 0.00647 0.0
C474 C 0.85659 0.87215 0.00660 0.0
H475 H 0.94385 0.94135 0.95512 0.0
H476 H 0.90460 0.90703 0.95437 0.0
H477 H 0.88785 0.93090 0.02242 0.0
H478 H 0.92691 0.96549 0.02251 0.0
H479 H 0.95183 0.93037 0.04103 0.0
H480 H 0.91272 0.89586 0.04194 0.0
