data_{}
_symmetry_space_group_name_H-M    P1
_symmetry_Int_Tables_number       1
_symmetry_cell_setting            triclinic
loop_
_symmetry_equiv_pos_as_xyz
'x, y, z'
_cell_length_a     67.212
_cell_length_b     75.659
_cell_length_c     39.589
_cell_angle_alpha  90.149
_cell_angle_beta   90.072
_cell_angle_gamma  123.676
loop_
_atom_site_label
_atom_site_type_symbol
_atom_site_fract_x
_atom_site_fract_y
_atom_site_fract_z
_atom_type_partial_charge
C0 C 0.07516 0.04846 0.00328 0.0
Ag1 Ag 0.01381 0.02576 0.98913 0.0
C2 C 0.97917 0.97318 0.99990 0.0
C3 C 0.00787 0.06624 0.00560 0.0
N4 N 0.05485 0.03953 0.00506 0.0
N5 N 0.99135 0.99084 0.99321 0.0
N6 N 0.00941 0.05188 0.00551 0.0
C7 C 0.89793 0.36298 0.78581 0.0
C8 C 0.87910 0.34383 0.80689 0.0
C9 C 0.88706 0.33666 0.83748 0.0
C10 C 0.86845 0.31749 0.85876 0.0
C11 C 0.87660 0.31041 0.88927 0.0
C12 C 0.90332 0.32249 0.89837 0.0
C13 C 0.92190 0.34167 0.87717 0.0
C14 C 0.91376 0.34875 0.84671 0.0
C15 C 0.89087 0.29903 0.94932 0.0
C16 C 0.90339 0.29709 0.98013 0.0
C17 C 0.91218 0.28218 0.97879 0.0
C18 C 0.92869 0.28342 0.00694 0.0
C19 C 0.93397 0.29754 0.03822 0.0
C20 C 0.92322 0.31092 0.04090 0.0
C21 C 0.90794 0.31072 0.01178 0.0
C22 C 0.89884 0.32543 0.01313 0.0
C23 C 0.90612 0.26744 0.94805 0.0
C24 C 0.95069 0.29881 0.06615 0.0
C25 C 0.94025 0.27078 0.00375 0.0
C26 C 0.97957 0.27628 0.99545 0.0
C27 C 0.96605 0.25216 0.00101 0.0
C28 C 0.97996 0.24149 0.00285 0.0
C29 C 0.00735 0.25495 0.99990 0.0
C30 C 0.02084 0.27906 0.99327 0.0
C31 C 0.00693 0.28973 0.99144 0.0
C32 C 0.02120 0.24423 0.00131 0.0
C33 C 0.00758 0.22013 0.00731 0.0
C34 C 0.92880 0.32546 0.07165 0.0
C35 C 0.91339 0.32508 0.12794 0.0
C36 C 0.93425 0.34857 0.13035 0.0
C37 C 0.93434 0.36282 0.15825 0.0
C38 C 0.91354 0.35354 0.18357 0.0
C39 C 0.89273 0.33004 0.18116 0.0
C40 C 0.89265 0.31579 0.15332 0.0
C41 C 0.91342 0.36776 0.21130 0.0
C42 C 0.89243 0.35836 0.23628 0.0
O43 O 0.91144 0.31583 0.92837 0.0
O44 O 0.91267 0.31138 0.09968 0.0
O45 O 0.96604 0.28681 0.99476 0.0
H46 H 0.91766 0.37177 0.79293 0.0
H47 H 0.85936 0.33499 0.79985 0.0
H48 H 0.84867 0.30856 0.85194 0.0
H49 H 0.86287 0.29625 0.90510 0.0
H50 H 0.94167 0.35064 0.88406 0.0
H51 H 0.92750 0.36293 0.83096 0.0
H52 H 0.88016 0.28336 0.93488 0.0
H53 H 0.87889 0.30454 0.95751 0.0
H54 H 0.90784 0.33708 0.03505 0.0
H55 H 0.87864 0.31557 0.01685 0.0
H56 H 0.90342 0.33459 0.98841 0.0
H57 H 0.90107 0.27364 0.92564 0.0
H58 H 0.89037 0.25077 0.95463 0.0
H59 H 0.92219 0.26682 0.94121 0.0
H60 H 0.95342 0.31085 0.08614 0.0
H61 H 0.96864 0.30401 0.05452 0.0
H62 H 0.94245 0.28254 0.07826 0.0
H63 H 0.93911 0.26300 0.02892 0.0
H64 H 0.93110 0.25822 0.98304 0.0
H65 H 0.94578 0.24224 0.00391 0.0
H66 H 0.97000 0.22363 0.00705 0.0
H67 H 0.04112 0.28900 0.99039 0.0
H68 H 0.01689 0.30760 0.98726 0.0
H69 H 0.04148 0.25411 0.99854 0.0
H70 H 0.98730 0.21029 0.01006 0.0
H71 H 0.94834 0.33383 0.07957 0.0
H72 H 0.92457 0.33771 0.06514 0.0
H73 H 0.94950 0.35541 0.11138 0.0
H74 H 0.94974 0.38023 0.16008 0.0
H75 H 0.87735 0.32322 0.19994 0.0
H76 H 0.87719 0.29842 0.15134 0.0
H77 H 0.92878 0.38518 0.21329 0.0
H78 H 0.87709 0.34093 0.23419 0.0
C79 C 0.56242 0.23780 0.22874 0.0
C80 C 0.55798 0.21887 0.20743 0.0
C81 C 0.54101 0.21130 0.17678 0.0
C82 C 0.53632 0.19234 0.15527 0.0
C83 C 0.51926 0.18486 0.12470 0.0
C84 C 0.50691 0.19633 0.11577 0.0
C85 C 0.51166 0.21532 0.13719 0.0
C86 C 0.52869 0.22279 0.16772 0.0
C87 C 0.49063 0.17279 0.06455 0.0
C88 C 0.47546 0.17042 0.03374 0.0
C89 C 0.44814 0.15497 0.03494 0.0
C90 C 0.43280 0.15570 0.00683 0.0
C91 C 0.44481 0.16992 0.97570 0.0
C92 C 0.47226 0.18388 0.97314 0.0
C93 C 0.48760 0.18416 0.00224 0.0
C94 C 0.51501 0.19942 0.00103 0.0
C95 C 0.43615 0.14015 0.06551 0.0
C96 C 0.42933 0.17068 0.94780 0.0
C97 C 0.40546 0.14248 0.00990 0.0
C98 C 0.37218 0.14687 0.01832 0.0
C99 C 0.35621 0.12271 0.01248 0.0
C100 C 0.32888 0.11140 0.01055 0.0
C101 C 0.31757 0.12428 0.01446 0.0
C102 C 0.33356 0.14843 0.02058 0.0
C103 C 0.36089 0.15973 0.02251 0.0
C104 C 0.29025 0.11293 0.01218 0.0
C105 C 0.27441 0.08879 0.00590 0.0
C106 C 0.48446 0.19850 0.94256 0.0
C107 C 0.49965 0.19857 0.88624 0.0
C108 C 0.50736 0.22185 0.88410 0.0
C109 C 0.52481 0.23636 0.85636 0.0
C110 C 0.53454 0.22754 0.83091 0.0
C111 C 0.52677 0.20423 0.83304 0.0
C112 C 0.50930 0.18973 0.86073 0.0
C113 C 0.55217 0.24201 0.80333 0.0
C114 C 0.56195 0.23307 0.77821 0.0
O115 O 0.49041 0.18929 0.08571 0.0
O116 O 0.48353 0.18465 0.91436 0.0
O117 O 0.39895 0.15802 0.01909 0.0
H118 H 0.55315 0.24615 0.22174 0.0
H119 H 0.56720 0.21047 0.21435 0.0
H120 H 0.54546 0.18385 0.16197 0.0
H121 H 0.51578 0.17085 0.10870 0.0
H122 H 0.50256 0.22384 0.13043 0.0
H123 H 0.53219 0.23682 0.18364 0.0
H124 H 0.48224 0.15716 0.07881 0.0
H125 H 0.50962 0.17878 0.05640 0.0
H126 H 0.52018 0.21100 0.97925 0.0
H127 H 0.52343 0.18999 0.99718 0.0
H128 H 0.52165 0.20862 0.02585 0.0
H129 H 0.44896 0.14663 0.08798 0.0
H130 H 0.43165 0.12364 0.05873 0.0
H131 H 0.41902 0.13902 0.07236 0.0
H132 H 0.44137 0.18286 0.92795 0.0
H133 H 0.41745 0.17543 0.95952 0.0
H134 H 0.41765 0.15435 0.93551 0.0
H135 H 0.39699 0.13457 0.98464 0.0
H136 H 0.39931 0.12997 0.03046 0.0
H137 H 0.36464 0.11322 0.00944 0.0
H138 H 0.31702 0.09352 0.00615 0.0
H139 H 0.32516 0.15794 0.02361 0.0
H140 H 0.37278 0.17763 0.02690 0.0
H141 H 0.28177 0.12237 0.01508 0.0
H142 H 0.28294 0.07939 0.00302 0.0
H143 H 0.47487 0.20642 0.93475 0.0
H144 H 0.50389 0.21112 0.94918 0.0
H145 H 0.50027 0.22837 0.90317 0.0
H146 H 0.53059 0.25362 0.85473 0.0
H147 H 0.53402 0.19775 0.81416 0.0
H148 H 0.50364 0.17251 0.86250 0.0
H149 H 0.55799 0.25928 0.80154 0.0
H150 H 0.55608 0.21579 0.78010 0.0
C151 C 0.68603 0.53835 0.77795 0.0
C152 C 0.70870 0.54627 0.79924 0.0
C153 C 0.71410 0.56087 0.82986 0.0
C154 C 0.73674 0.56898 0.85135 0.0
C155 C 0.74202 0.58364 0.88190 0.0
C156 C 0.72467 0.59017 0.89083 0.0
C157 C 0.70202 0.58201 0.86943 0.0
C158 C 0.69675 0.56738 0.83893 0.0
C159 C 0.75027 0.60812 0.94201 0.0
C160 C 0.74960 0.62012 0.97280 0.0
C161 C 0.76240 0.64438 0.97156 0.0
C162 C 0.75780 0.65575 0.99990 0.0
C163 C 0.74289 0.64333 0.03081 0.0
C164 C 0.73200 0.61934 0.03341 0.0
C165 C 0.73533 0.60771 0.00432 0.0
C166 C 0.72280 0.58344 0.00557 0.0
C167 C 0.77807 0.65693 0.94096 0.0
C168 C 0.73821 0.65481 0.05869 0.0
C169 C 0.76778 0.67949 0.99654 0.0
C170 C 0.75427 0.70345 0.98810 0.0
C171 C 0.78069 0.72127 0.99390 0.0
C172 C 0.78829 0.74454 0.99579 0.0
C173 C 0.76943 0.74994 0.99188 0.0
C174 C 0.74301 0.73210 0.98580 0.0
C175 C 0.73543 0.70883 0.98391 0.0
C176 C 0.77707 0.77321 0.99412 0.0
C177 C 0.80351 0.79094 0.00010 0.0
C178 C 0.71662 0.60667 0.06402 0.0
C179 C 0.72022 0.59529 0.12035 0.0
C180 C 0.69290 0.58389 0.12252 0.0
C181 C 0.67894 0.56731 0.15030 0.0
C182 C 0.69234 0.56213 0.17575 0.0
C183 C 0.71968 0.57359 0.17359 0.0
C184 C 0.73363 0.59018 0.14586 0.0
C185 C 0.67846 0.54542 0.20336 0.0
C186 C 0.69203 0.54025 0.22848 0.0
O187 O 0.72954 0.60429 0.92087 0.0
O188 O 0.73377 0.61073 0.09221 0.0
O189 O 0.74674 0.68063 0.98736 0.0
H190 H 0.67334 0.54332 0.78495 0.0
H191 H 0.72143 0.54135 0.79232 0.0
H192 H 0.74959 0.56415 0.84465 0.0
H193 H 0.75875 0.58964 0.89787 0.0
H194 H 0.68915 0.58680 0.87620 0.0
H195 H 0.68000 0.56136 0.82303 0.0
H196 H 0.76783 0.61817 0.92772 0.0
H197 H 0.74735 0.59240 0.95018 0.0
H198 H 0.70954 0.57678 0.02738 0.0
H199 H 0.73664 0.57938 0.00943 0.0
H200 H 0.71286 0.57621 0.98077 0.0
H201 H 0.77302 0.64572 0.91851 0.0
H202 H 0.79767 0.66430 0.94772 0.0
H203 H 0.77536 0.67007 0.93409 0.0
H204 H 0.72586 0.64285 0.07857 0.0
H205 H 0.72940 0.66259 0.04697 0.0
H206 H 0.75586 0.66753 0.07096 0.0
H207 H 0.77567 0.68778 0.02179 0.0
H208 H 0.78197 0.68711 0.97597 0.0
H209 H 0.79461 0.71722 0.99693 0.0
H210 H 0.80784 0.75777 0.00010 0.0
H211 H 0.72908 0.73612 0.98278 0.0
H212 H 0.71586 0.69558 0.97956 0.0
H213 H 0.76320 0.77731 0.99122 0.0
H214 H 0.81734 0.78679 0.00324 0.0
H215 H 0.70439 0.61198 0.07183 0.0
H216 H 0.70549 0.58902 0.05743 0.0
H217 H 0.68302 0.58763 0.10346 0.0
H218 H 0.65869 0.55880 0.15195 0.0
H219 H 0.72955 0.56971 0.19246 0.0
H220 H 0.75385 0.59858 0.14407 0.0
H221 H 0.65821 0.53689 0.20518 0.0
H222 H 0.71227 0.54881 0.22656 0.0
O223 O 0.76606 0.40538 0.56721 0.0
Zn224 Zn 0.73278 0.39441 0.55220 0.0
Zn225 Zn 0.73469 0.39161 0.45903 0.0
O226 O 0.76168 0.37617 0.54972 0.0
O227 O 0.75469 0.42185 0.44432 0.0
C228 C 0.71624 0.42096 0.56525 0.0
C229 C 0.69263 0.37229 0.42395 0.0
O230 O 0.72712 0.42634 0.46163 0.0
O231 O 0.70313 0.35021 0.55798 0.0
O232 O 0.70964 0.37567 0.58805 0.0
O233 O 0.73420 0.42008 0.56862 0.0
O234 O 0.70030 0.41050 0.54493 0.0
C235 C 0.74477 0.43179 0.44530 0.0
O236 O 0.68593 0.37515 0.45281 0.0
O237 O 0.71078 0.37395 0.42292 0.0
O238 O 0.75818 0.38520 0.44275 0.0
O239 O 0.73924 0.35390 0.46614 0.0
O240 O 0.72682 0.38766 0.50558 0.0
C241 C 0.75349 0.36680 0.44600 0.0
C242 C 0.70262 0.35785 0.58688 0.0
C243 C 0.77196 0.39233 0.56620 0.0
C244 C 0.88191 0.37078 0.74605 0.0
C245 C 0.86719 0.37451 0.72074 0.0
C246 C 0.85244 0.37823 0.69545 0.0
C247 C 0.86321 0.40034 0.67978 0.0
C248 C 0.84847 0.40405 0.65447 0.0
C249 C 0.82294 0.38566 0.64489 0.0
C250 C 0.81217 0.36355 0.66055 0.0
C251 C 0.82692 0.35983 0.68583 0.0
C252 C 0.80820 0.38938 0.61959 0.0
C253 C 0.79344 0.39308 0.59430 0.0
H254 H 0.88209 0.41396 0.68690 0.0
H255 H 0.85645 0.42042 0.64285 0.0
H256 H 0.79328 0.34993 0.65344 0.0
H257 H 0.81896 0.34346 0.69742 0.0
C258 C 0.58008 0.24972 0.25870 0.0
C259 C 0.59653 0.26850 0.28243 0.0
C260 C 0.61298 0.28726 0.30619 0.0
C261 C 0.63556 0.30736 0.29218 0.0
C262 C 0.65200 0.32613 0.31593 0.0
C263 C 0.64588 0.32477 0.35371 0.0
C264 C 0.62330 0.30466 0.36772 0.0
C265 C 0.60685 0.28591 0.34396 0.0
C266 C 0.66232 0.34353 0.37746 0.0
C267 C 0.67875 0.36228 0.40125 0.0
H268 H 0.64011 0.30836 0.26422 0.0
H269 H 0.66870 0.34102 0.30556 0.0
H270 H 0.61876 0.30366 0.39568 0.0
H271 H 0.59013 0.27102 0.35432 0.0
C272 C 0.57879 0.24705 0.75311 0.0
C273 C 0.59776 0.26371 0.72875 0.0
C274 C 0.61673 0.28035 0.70436 0.0
C275 C 0.61616 0.29966 0.69400 0.0
C276 C 0.63514 0.31631 0.66963 0.0
C277 C 0.65467 0.31361 0.65558 0.0
C278 C 0.65524 0.29429 0.66595 0.0
C279 C 0.63628 0.27766 0.69034 0.0
C280 C 0.67365 0.33025 0.63121 0.0
C281 C 0.69263 0.34687 0.60682 0.0
H282 H 0.60169 0.30165 0.70436 0.0
H283 H 0.63473 0.33062 0.66198 0.0
H284 H 0.66971 0.29231 0.65556 0.0
H285 H 0.63670 0.26337 0.69803 0.0
C286 C 0.69101 0.51744 0.27179 0.0
C287 C 0.69960 0.50669 0.29512 0.0
C288 C 0.70817 0.49591 0.31843 0.0
C289 C 0.73270 0.50929 0.33602 0.0
C290 C 0.74127 0.49852 0.35934 0.0
C291 C 0.72531 0.47435 0.36502 0.0
C292 C 0.70078 0.46097 0.34743 0.0
C293 C 0.69220 0.47175 0.32414 0.0
C294 C 0.73388 0.46358 0.38834 0.0
C295 C 0.74243 0.45278 0.41164 0.0
H296 H 0.74452 0.52718 0.33179 0.0
H297 H 0.75942 0.50843 0.37239 0.0
H298 H 0.68897 0.44308 0.35165 0.0
H299 H 0.67404 0.46184 0.31112 0.0
C300 C 0.68537 0.51854 0.73877 0.0
C301 C 0.68991 0.50525 0.71438 0.0
C302 C 0.69448 0.49199 0.68998 0.0
C303 C 0.68646 0.46924 0.69952 0.0
C304 C 0.69102 0.45597 0.67511 0.0
C305 C 0.70362 0.46547 0.64118 0.0
C306 C 0.71163 0.48822 0.63162 0.0
C307 C 0.70706 0.50148 0.65602 0.0
C308 C 0.70818 0.45220 0.61677 0.0
C309 C 0.71276 0.43896 0.59235 0.0
H310 H 0.67716 0.46222 0.72466 0.0
H311 H 0.68507 0.43913 0.68216 0.0
H312 H 0.72095 0.49524 0.60649 0.0
H313 H 0.71298 0.51831 0.64895 0.0
C314 C 0.88067 0.36798 0.27183 0.0
C315 C 0.86266 0.36740 0.29658 0.0
C316 C 0.84466 0.36680 0.32137 0.0
C317 C 0.84258 0.38602 0.32430 0.0
C318 C 0.82457 0.38541 0.34907 0.0
C319 C 0.80865 0.36560 0.37094 0.0
C320 C 0.81072 0.34638 0.36801 0.0
C321 C 0.82872 0.34698 0.34321 0.0
C322 C 0.79064 0.36500 0.39572 0.0
C323 C 0.77263 0.36438 0.42051 0.0
H324 H 0.85438 0.40069 0.30814 0.0
H325 H 0.82302 0.39963 0.35122 0.0
H326 H 0.79893 0.33171 0.38419 0.0
H327 H 0.83025 0.33275 0.34103 0.0
C328 C 0.00589 0.08720 0.00333 0.0
C329 C 0.02286 0.11020 0.99100 0.0
C330 C 0.01737 0.12699 0.99990 0.0
C331 C 0.03432 0.14997 0.98665 0.0
C332 C 0.02881 0.16677 0.99462 0.0
C333 C 0.00635 0.16058 0.01501 0.0
C334 C 0.98942 0.13760 0.02747 0.0
C335 C 0.99492 0.12081 0.01949 0.0
C336 C 0.00010 0.17736 0.02294 0.0
C337 C 0.01772 0.20032 0.01043 0.0
H338 H 0.03949 0.11479 0.97590 0.0
H339 H 0.05096 0.15456 0.97157 0.0
H340 H 0.04136 0.18378 0.98543 0.0
H341 H 0.97280 0.13303 0.04261 0.0
H342 H 0.98239 0.10380 0.02871 0.0
H343 H 0.98419 0.17278 0.03806 0.0
H344 H 0.98684 0.08029 0.01235 0.0
H345 H 0.03582 0.20438 0.00103 0.0
C346 C 0.10505 0.05671 0.00010 0.0
C347 C 0.11674 0.04440 0.00776 0.0
C348 C 0.14410 0.05588 0.00593 0.0
C349 C 0.15578 0.04356 0.01280 0.0
C350 C 0.18314 0.05501 0.01088 0.0
C351 C 0.19882 0.07880 0.00211 0.0
C352 C 0.18715 0.09114 0.99530 0.0
C353 C 0.15979 0.07968 0.99720 0.0
C354 C 0.22618 0.09025 0.00010 0.0
C355 C 0.23784 0.07790 0.00690 0.0
H356 H 0.10514 0.02679 0.01426 0.0
H357 H 0.14416 0.02595 0.01931 0.0
H358 H 0.19177 0.04588 0.01596 0.0
H359 H 0.19877 0.10876 0.98885 0.0
H360 H 0.15116 0.08881 0.99216 0.0
H361 H 0.23779 0.10787 0.99367 0.0
H362 H 0.11449 0.07280 0.98777 0.0
H363 H 0.22556 0.06165 0.01897 0.0
C364 C 0.95111 0.94442 0.00575 0.0
C365 C 0.94163 0.92206 0.01943 0.0
C366 C 0.91592 0.90348 0.01117 0.0
C367 C 0.90644 0.88113 0.02490 0.0
C368 C 0.88071 0.86256 0.01673 0.0
C369 C 0.86446 0.86633 0.99480 0.0
C370 C 0.87396 0.88867 0.98101 0.0
C371 C 0.89969 0.90725 0.98920 0.0
C372 C 0.83872 0.84776 0.98668 0.0
C373 C 0.82922 0.82543 0.00010 0.0
H374 H 0.95365 0.91926 0.03566 0.0
H375 H 0.91846 0.87834 0.04113 0.0
H376 H 0.87369 0.84601 0.02691 0.0
H377 H 0.86195 0.89146 0.96474 0.0
H378 H 0.90672 0.92379 0.97899 0.0
H379 H 0.82670 0.85055 0.97042 0.0
H380 H 0.93921 0.94953 0.99540 0.0
H381 H 0.84349 0.82326 0.01115 0.0
