data_{}
_symmetry_space_group_name_H-M    P1
_symmetry_Int_Tables_number       1
_symmetry_cell_setting            triclinic
loop_
_symmetry_equiv_pos_as_xyz
'x, y, z'
_cell_length_a     78.924
_cell_length_b     81.306
_cell_length_c     39.609
_cell_angle_alpha  90.121
_cell_angle_beta   90.063
_cell_angle_gamma  123.291
loop_
_atom_site_label
_atom_site_type_symbol
_atom_site_fract_x
_atom_site_fract_y
_atom_site_fract_z
_atom_type_partial_charge
H0 H 0.05344 0.07744 0.99529 0.0
C1 C 0.99149 0.99672 0.98780 0.0
H2 H 0.04927 0.07340 0.03408 0.0
H3 H 0.03043 0.02866 0.99829 0.0
H4 H 0.01982 0.07494 0.01056 0.0
H5 H 0.96911 0.01309 0.99038 0.0
H6 H 0.97949 0.05633 0.02309 0.0
H7 H 0.98251 0.06103 0.98435 0.0
C8 C 0.04850 0.06733 0.01251 0.0
C9 C 0.02630 0.05136 0.00495 0.0
C10 C 0.01977 0.03209 0.99885 0.0
C11 C 0.99990 0.01805 0.99209 0.0
C12 C 0.98552 0.02422 0.99190 0.0
C13 C 0.99205 0.04318 0.99883 0.0
C14 C 0.01275 0.05725 0.00495 0.0
C15 C 0.97829 0.05073 0.00010 0.0
H16 H 0.98164 0.99116 0.96958 0.0
H17 H 0.00266 0.99549 0.98174 0.0
C18 C 0.64779 0.17626 0.78546 0.0
C19 C 0.63275 0.15808 0.80655 0.0
C20 C 0.64046 0.15233 0.83714 0.0
C21 C 0.62562 0.13415 0.85843 0.0
C22 C 0.63350 0.12849 0.88894 0.0
C23 C 0.65618 0.14099 0.89802 0.0
C24 C 0.67099 0.15919 0.87681 0.0
C25 C 0.66313 0.16484 0.84635 0.0
C26 C 0.64720 0.11947 0.94898 0.0
C27 C 0.65850 0.11864 0.97977 0.0
C28 C 0.66764 0.10614 0.97846 0.0
C29 C 0.68222 0.10838 0.00659 0.0
C30 C 0.68565 0.12119 0.03784 0.0
C31 C 0.67490 0.13221 0.04050 0.0
C32 C 0.66134 0.13096 0.01139 0.0
C33 C 0.65193 0.14327 0.01271 0.0
C34 C 0.66357 0.09274 0.94776 0.0
C35 C 0.70040 0.12348 0.06576 0.0
C36 C 0.69362 0.09807 0.00343 0.0
C37 C 0.72809 0.10567 0.99513 0.0
C38 C 0.71822 0.08349 0.00010 0.0
C39 C 0.73153 0.07507 0.00258 0.0
C40 C 0.75469 0.08884 0.99885 0.0
C41 C 0.76454 0.11101 0.99297 0.0
C42 C 0.75122 0.11943 0.99111 0.0
C43 C 0.76795 0.08037 0.00105 0.0
C44 C 0.75799 0.05821 0.00709 0.0
C45 C 0.67857 0.14540 0.07121 0.0
C46 C 0.66490 0.14399 0.12746 0.0
C47 C 0.68135 0.16613 0.12985 0.0
C48 C 0.68017 0.17868 0.15771 0.0
C49 C 0.66250 0.16906 0.18303 0.0
C50 C 0.64608 0.14690 0.18065 0.0
C51 C 0.64728 0.13435 0.15284 0.0
C52 C 0.66112 0.18156 0.21072 0.0
C53 C 0.64329 0.17181 0.23570 0.0
O54 O 0.66399 0.13570 0.92802 0.0
O55 O 0.66548 0.13188 0.09924 0.0
O56 O 0.71512 0.11399 0.99443 0.0
H57 H 0.66455 0.18538 0.79257 0.0
H58 H 0.61598 0.14892 0.79952 0.0
H59 H 0.60883 0.12489 0.85162 0.0
H60 H 0.62255 0.11506 0.90477 0.0
H61 H 0.68777 0.16846 0.88369 0.0
H62 H 0.67408 0.17828 0.83059 0.0
H63 H 0.63907 0.10492 0.93456 0.0
H64 H 0.63606 0.12348 0.95715 0.0
H65 H 0.65890 0.15416 0.03461 0.0
H66 H 0.63485 0.13317 0.01644 0.0
H67 H 0.65519 0.15165 0.98799 0.0
H68 H 0.65853 0.09784 0.92535 0.0
H69 H 0.65105 0.07695 0.95436 0.0
H70 H 0.67791 0.09331 0.94093 0.0
H71 H 0.70175 0.13427 0.08572 0.0
H72 H 0.71590 0.12931 0.05413 0.0
H73 H 0.69452 0.10858 0.07789 0.0
H74 H 0.69330 0.09114 0.02860 0.0
H75 H 0.68660 0.08637 0.98275 0.0
H76 H 0.70107 0.07333 0.00364 0.0
H77 H 0.72426 0.05865 0.00680 0.0
H78 H 0.78168 0.12119 0.99007 0.0
H79 H 0.75848 0.13586 0.98691 0.0
H80 H 0.78511 0.09050 0.99827 0.0
H81 H 0.74084 0.04812 0.00984 0.0
H82 H 0.69519 0.15414 0.07912 0.0
H83 H 0.67371 0.15589 0.06469 0.0
H84 H 0.69431 0.17322 0.11088 0.0
H85 H 0.69231 0.19509 0.15952 0.0
H86 H 0.63301 0.13982 0.19943 0.0
H87 H 0.63508 0.11798 0.15089 0.0
H88 H 0.67323 0.19797 0.21269 0.0
H89 H 0.63121 0.15540 0.23363 0.0
C90 C 0.54604 0.34814 0.23013 0.0
C91 C 0.54053 0.32996 0.20884 0.0
C92 C 0.52629 0.32418 0.17822 0.0
C93 C 0.52057 0.30600 0.15674 0.0
C94 C 0.50626 0.30031 0.12620 0.0
C95 C 0.49769 0.31279 0.11728 0.0
C96 C 0.50345 0.33099 0.13868 0.0
C97 C 0.51774 0.33667 0.16917 0.0
C98 C 0.48231 0.29125 0.06611 0.0
C99 C 0.47004 0.29040 0.03533 0.0
C100 C 0.44676 0.27787 0.03656 0.0
C101 C 0.43469 0.28009 0.00848 0.0
C102 C 0.44570 0.29288 0.97735 0.0
C103 C 0.46892 0.30393 0.97476 0.0
C104 C 0.48110 0.30271 0.00384 0.0
C105 C 0.50443 0.31504 0.00259 0.0
C106 C 0.43570 0.26447 0.06714 0.0
C107 C 0.43351 0.29515 0.94948 0.0
C108 C 0.41163 0.26975 0.01158 0.0
C109 C 0.38572 0.27731 0.02002 0.0
C110 C 0.37053 0.25513 0.01421 0.0
C111 C 0.34768 0.24668 0.01231 0.0
C112 C 0.34008 0.26044 0.01623 0.0
C113 C 0.35529 0.28261 0.02232 0.0
C114 C 0.37813 0.29106 0.02421 0.0
C115 C 0.31723 0.25195 0.01398 0.0
C116 C 0.30214 0.22977 0.00773 0.0
C117 C 0.48013 0.31711 0.94418 0.0
C118 C 0.49217 0.31569 0.88788 0.0
C119 C 0.50073 0.33782 0.88572 0.0
C120 C 0.51608 0.35038 0.85797 0.0
C121 C 0.52287 0.34076 0.83253 0.0
C122 C 0.51425 0.31861 0.83467 0.0
C123 C 0.49888 0.30606 0.86238 0.0
C124 C 0.53835 0.35326 0.80494 0.0
C125 C 0.54516 0.34353 0.77983 0.0
O126 O 0.48387 0.30748 0.08725 0.0
O127 O 0.47793 0.30359 0.91600 0.0
O128 O 0.40811 0.28566 0.02077 0.0
H129 H 0.53958 0.35724 0.22314 0.0
H130 H 0.54695 0.32081 0.21575 0.0
H131 H 0.52692 0.29676 0.16343 0.0
H132 H 0.50203 0.28689 0.11022 0.0
H133 H 0.49714 0.34025 0.13192 0.0
H134 H 0.52198 0.35012 0.18507 0.0
H135 H 0.47401 0.27670 0.08038 0.0
H136 H 0.49799 0.29527 0.05795 0.0
H137 H 0.50975 0.32591 0.98081 0.0
H138 H 0.51011 0.30495 0.99874 0.0
H139 H 0.51066 0.32343 0.02739 0.0
H140 H 0.44654 0.26959 0.08958 0.0
H141 H 0.43039 0.24869 0.06037 0.0
H142 H 0.42201 0.26504 0.07400 0.0
H143 H 0.44434 0.30594 0.92962 0.0
H144 H 0.42460 0.30097 0.96120 0.0
H145 H 0.42254 0.28024 0.93722 0.0
H146 H 0.40409 0.26281 0.98634 0.0
H147 H 0.40544 0.25806 0.03214 0.0
H148 H 0.37620 0.24499 0.01117 0.0
H149 H 0.33640 0.23027 0.00793 0.0
H150 H 0.34964 0.29278 0.02534 0.0
H151 H 0.38944 0.30749 0.02858 0.0
H152 H 0.31151 0.26206 0.01688 0.0
H153 H 0.30791 0.21971 0.00484 0.0
H154 H 0.47336 0.32583 0.93638 0.0
H155 H 0.49685 0.32762 0.95078 0.0
H156 H 0.49580 0.34492 0.90478 0.0
H157 H 0.52248 0.36678 0.85633 0.0
H158 H 0.51931 0.31154 0.81581 0.0
H159 H 0.49258 0.28969 0.86416 0.0
H160 H 0.54479 0.36967 0.80314 0.0
H161 H 0.53869 0.32711 0.78173 0.0
C162 C 0.82421 0.53108 0.77903 0.0
C163 C 0.84316 0.53719 0.80029 0.0
C164 C 0.84857 0.55092 0.83090 0.0
C165 C 0.86752 0.55722 0.85235 0.0
C166 C 0.87283 0.57102 0.88289 0.0
C167 C 0.85922 0.57850 0.89183 0.0
C168 C 0.84026 0.57216 0.87046 0.0
C169 C 0.83496 0.55838 0.83997 0.0
C170 C 0.88125 0.59410 0.94297 0.0
C171 C 0.88156 0.60574 0.97375 0.0
C172 C 0.89365 0.62832 0.97251 0.0
C173 C 0.89072 0.63962 0.00010 0.0
C174 C 0.87774 0.62861 0.03175 0.0
C175 C 0.86721 0.60615 0.03434 0.0
C176 C 0.86909 0.59471 0.00526 0.0
C177 C 0.85720 0.57209 0.00652 0.0
C178 C 0.90726 0.63940 0.94191 0.0
C179 C 0.87476 0.64001 0.05962 0.0
C180 C 0.90051 0.66189 0.99749 0.0
C181 C 0.89124 0.68595 0.98907 0.0
C182 C 0.91395 0.70139 0.99484 0.0
C183 C 0.92175 0.72337 0.99674 0.0
C184 C 0.90684 0.72986 0.99285 0.0
C185 C 0.88415 0.71442 0.98679 0.0
C186 C 0.87634 0.69244 0.98490 0.0
C187 C 0.91469 0.75184 0.99509 0.0
C188 C 0.93739 0.76718 0.00131 0.0
C189 C 0.85383 0.59494 0.06494 0.0
C190 C 0.85594 0.58368 0.12124 0.0
C191 C 0.83296 0.57452 0.12343 0.0
C192 C 0.82045 0.55942 0.15120 0.0
C193 C 0.83096 0.55351 0.17662 0.0
C194 C 0.85395 0.56272 0.17444 0.0
C195 C 0.86645 0.57783 0.14672 0.0
C196 C 0.81851 0.53829 0.20423 0.0
C197 C 0.82914 0.53236 0.22932 0.0
O198 O 0.86417 0.59182 0.92185 0.0
O199 O 0.86803 0.59770 0.09311 0.0
O200 O 0.88352 0.66441 0.98833 0.0
H201 H 0.81427 0.53673 0.78603 0.0
H202 H 0.85314 0.53157 0.79336 0.0
H203 H 0.87759 0.55169 0.84565 0.0
H204 H 0.88682 0.57568 0.89885 0.0
H205 H 0.83017 0.57766 0.87723 0.0
H206 H 0.82095 0.55371 0.82409 0.0
H207 H 0.89621 0.60264 0.92868 0.0
H208 H 0.87777 0.57911 0.95114 0.0
H209 H 0.84598 0.56654 0.02832 0.0
H210 H 0.86815 0.56723 0.01036 0.0
H211 H 0.84864 0.56578 0.98173 0.0
H212 H 0.90238 0.62891 0.91948 0.0
H213 H 0.92368 0.64519 0.94865 0.0
H214 H 0.90600 0.65228 0.93505 0.0
H215 H 0.86389 0.62928 0.07950 0.0
H216 H 0.86817 0.64813 0.04792 0.0
H217 H 0.88998 0.65111 0.07187 0.0
H218 H 0.90749 0.66935 0.02272 0.0
H219 H 0.91256 0.66829 0.97691 0.0
H220 H 0.92495 0.69653 0.99786 0.0
H221 H 0.93856 0.73482 0.00109 0.0
H222 H 0.87312 0.71924 0.98378 0.0
H223 H 0.85953 0.68096 0.98056 0.0
H224 H 0.90372 0.75674 0.99221 0.0
H225 H 0.94832 0.76223 0.00418 0.0
H226 H 0.84429 0.60090 0.07276 0.0
H227 H 0.84355 0.57864 0.05836 0.0
H228 H 0.82522 0.57881 0.10439 0.0
H229 H 0.80343 0.55258 0.15287 0.0
H230 H 0.86168 0.55831 0.19330 0.0
H231 H 0.88345 0.58458 0.14492 0.0
H232 H 0.80148 0.53141 0.20605 0.0
H233 H 0.84618 0.53927 0.22739 0.0
O234 O 0.70609 0.35040 0.56774 0.0
Zn235 Zn 0.68930 0.36054 0.55291 0.0
Zn236 Zn 0.68760 0.35619 0.45976 0.0
O237 O 0.68255 0.32120 0.55024 0.0
O238 O 0.71585 0.37612 0.44501 0.0
C239 C 0.70554 0.40079 0.56607 0.0
C240 C 0.66220 0.36302 0.42490 0.0
O241 O 0.71238 0.39946 0.46247 0.0
O242 O 0.64790 0.33170 0.55877 0.0
O243 O 0.66910 0.35537 0.58883 0.0
O244 O 0.70938 0.38784 0.56935 0.0
O245 O 0.69350 0.39993 0.54584 0.0
C246 C 0.72100 0.39368 0.44606 0.0
O247 O 0.66272 0.37063 0.45379 0.0
O248 O 0.66803 0.35272 0.42377 0.0
O249 O 0.68858 0.33347 0.44336 0.0
O250 O 0.65979 0.31167 0.46679 0.0
O251 O 0.68261 0.35710 0.50632 0.0
C252 C 0.67327 0.31636 0.44660 0.0
C253 C 0.65365 0.34044 0.58767 0.0
C254 C 0.69755 0.33211 0.56669 0.0
C255 C 0.66534 0.23644 0.69297 0.0
N256 N 0.65373 0.24667 0.69188 0.0
N257 N 0.66119 0.26468 0.66906 0.0
C258 C 0.68025 0.27248 0.64730 0.0
N259 N 0.69190 0.26226 0.64834 0.0
N260 N 0.68444 0.24423 0.67120 0.0
C261 C 0.65786 0.21841 0.71583 0.0
C262 C 0.65055 0.20037 0.73855 0.0
C263 C 0.68757 0.29051 0.62455 0.0
C264 C 0.69480 0.30854 0.60187 0.0
C265 C 0.59080 0.35648 0.30614 0.0
N266 N 0.59398 0.36664 0.34055 0.0
N267 N 0.60997 0.36852 0.36539 0.0
C268 C 0.62280 0.36025 0.35586 0.0
N269 N 0.61965 0.35008 0.32141 0.0
N270 N 0.60364 0.34819 0.29653 0.0
C271 C 0.57479 0.35461 0.28130 0.0
C272 C 0.55885 0.35264 0.25622 0.0
C273 C 0.63876 0.36222 0.38090 0.0
C274 C 0.65469 0.36424 0.40607 0.0
C275 C 0.58767 0.34676 0.70530 0.0
N276 N 0.58403 0.34534 0.66691 0.0
N277 N 0.59788 0.34291 0.64301 0.0
C278 C 0.61538 0.34188 0.65746 0.0
N279 N 0.61905 0.34330 0.69589 0.0
N280 N 0.60519 0.34573 0.71983 0.0
C281 C 0.57380 0.34919 0.72919 0.0
C282 C 0.56005 0.35163 0.75338 0.0
C283 C 0.62914 0.33944 0.63331 0.0
C284 C 0.64283 0.33700 0.60902 0.0
C285 C 0.78767 0.47762 0.31683 0.0
N286 N 0.79633 0.46623 0.33172 0.0
N287 N 0.78388 0.44964 0.35737 0.0
C288 C 0.76277 0.44443 0.36816 0.0
N289 N 0.75406 0.45582 0.35328 0.0
N290 N 0.76653 0.47243 0.32760 0.0
C291 C 0.80015 0.49422 0.29116 0.0
C292 C 0.81245 0.51084 0.26547 0.0
C293 C 0.75044 0.42782 0.39383 0.0
C294 C 0.73821 0.41118 0.41951 0.0
C295 C 0.78130 0.48140 0.69189 0.0
N296 N 0.77625 0.46023 0.69296 0.0
N297 N 0.76109 0.44478 0.66748 0.0
C298 C 0.75098 0.45049 0.64091 0.0
N299 N 0.75602 0.47168 0.63978 0.0
N300 N 0.77119 0.48715 0.66529 0.0
C301 C 0.79648 0.49684 0.71741 0.0
C302 C 0.81162 0.51243 0.74275 0.0
C303 C 0.73584 0.43493 0.61553 0.0
C304 C 0.72072 0.41928 0.59025 0.0
C305 C 0.65361 0.22764 0.32231 0.0
N306 N 0.63645 0.23055 0.33129 0.0
N307 N 0.64061 0.24735 0.35517 0.0
C308 C 0.66194 0.26125 0.37009 0.0
N309 N 0.67915 0.25837 0.36113 0.0
N310 N 0.67498 0.24155 0.33722 0.0
C311 C 0.64941 0.21082 0.29840 0.0
C312 C 0.64544 0.19407 0.27453 0.0
C313 C 0.66595 0.27801 0.39395 0.0
C314 C 0.66983 0.29474 0.41779 0.0
C315 C 0.92660 0.04866 0.97341 0.0
C316 C 0.91549 0.04624 0.00682 0.0
C317 C 0.92337 0.04291 0.03999 0.0
C318 C 0.94234 0.04197 0.03975 0.0
C319 C 0.95343 0.04438 0.00635 0.0
C320 C 0.94556 0.04773 0.97318 0.0
C321 C 0.89649 0.04712 0.00703 0.0
C322 C 0.87747 0.04796 0.00727 0.0
C323 C 0.85843 0.04877 0.00752 0.0
C324 C 0.83936 0.04954 0.00778 0.0
C325 C 0.82029 0.05029 0.00804 0.0
C326 C 0.80899 0.04748 0.04138 0.0
C327 C 0.78986 0.04814 0.04163 0.0
C328 C 0.78204 0.05162 0.00854 0.0
C329 C 0.79334 0.05444 0.97520 0.0
C330 C 0.81247 0.05378 0.97495 0.0
H331 H 0.92077 0.05115 0.94885 0.0
H332 H 0.91516 0.04113 0.06472 0.0
H333 H 0.94817 0.03950 0.06431 0.0
H334 H 0.95378 0.04952 0.94845 0.0
H335 H 0.81478 0.04490 0.06588 0.0
H336 H 0.78150 0.04605 0.06630 0.0
H337 H 0.78756 0.05703 0.95071 0.0
H338 H 0.82084 0.05587 0.95027 0.0
C339 C 0.10485 0.08207 0.01616 0.0
C340 C 0.11253 0.10340 0.00644 0.0
C341 C 0.09733 0.10883 0.99650 0.0
C342 C 0.07444 0.09293 0.99625 0.0
C343 C 0.06675 0.07161 0.00595 0.0
C344 C 0.08195 0.06617 0.01591 0.0
C345 C 0.13543 0.11928 0.00658 0.0
C346 C 0.15833 0.13517 0.00668 0.0
C347 C 0.18122 0.15107 0.00671 0.0
C348 C 0.20411 0.16696 0.00667 0.0
C349 C 0.22701 0.18284 0.00660 0.0
C350 C 0.23467 0.20408 0.99623 0.0
C351 C 0.25757 0.21995 0.99601 0.0
C352 C 0.27280 0.21459 0.00617 0.0
C353 C 0.26513 0.19337 0.01657 0.0
C354 C 0.24224 0.17749 0.01679 0.0
H355 H 0.11610 0.07805 0.02354 0.0
H356 H 0.10302 0.12462 0.98932 0.0
H357 H 0.06319 0.09696 0.98889 0.0
H358 H 0.07626 0.05039 0.02311 0.0
H359 H 0.22339 0.20804 0.98869 0.0
H360 H 0.26324 0.23566 0.98831 0.0
H361 H 0.27641 0.18941 0.02412 0.0
H362 H 0.23656 0.16178 0.02448 0.0
C363 C 0.98271 0.95152 0.03859 0.0
C364 C 0.97851 0.94036 0.00496 0.0
C365 C 0.97890 0.95022 0.97156 0.0
C366 C 0.98346 0.97123 0.97180 0.0
C367 C 0.98766 0.98238 0.00543 0.0
C368 C 0.98729 0.97253 0.03883 0.0
C369 C 0.97388 0.91933 0.00473 0.0
C370 C 0.96921 0.89829 0.00449 0.0
C371 C 0.96452 0.87723 0.00422 0.0
C372 C 0.95978 0.85616 0.00394 0.0
C373 C 0.95502 0.83509 0.00366 0.0
C374 C 0.95043 0.82383 0.97005 0.0
C375 C 0.94558 0.80272 0.96978 0.0
C376 C 0.94534 0.79287 0.00311 0.0
C377 C 0.94995 0.80414 0.03671 0.0
C378 C 0.95479 0.82525 0.03699 0.0
H379 H 0.98245 0.94423 0.06332 0.0
H380 H 0.97579 0.94196 0.94666 0.0
H381 H 0.98375 0.97852 0.94707 0.0
H382 H 0.99040 0.98079 0.06373 0.0
H383 H 0.95061 0.83111 0.94538 0.0
H384 H 0.94217 0.79438 0.94490 0.0
H385 H 0.94977 0.79686 0.06138 0.0
H386 H 0.95820 0.83359 0.06187 0.0
