data_{}
_symmetry_space_group_name_H-M    P1
_symmetry_Int_Tables_number       1
_symmetry_cell_setting            triclinic
loop_
_symmetry_equiv_pos_as_xyz
'x, y, z'
_cell_length_a     63.565
_cell_length_b     63.977
_cell_length_c     36.712
_cell_angle_alpha  89.881
_cell_angle_beta   90.364
_cell_angle_gamma  121.245
loop_
_atom_site_label
_atom_site_type_symbol
_atom_site_fract_x
_atom_site_fract_y
_atom_site_fract_z
_atom_type_partial_charge
C0 C 0.01383 0.03298 0.00408 0.0
C1 C 0.99262 0.00608 0.00396 0.0
C2 C 0.99829 0.98542 0.00393 0.0
C3 C 0.02518 0.99166 0.00401 0.0
C4 C 0.04638 0.01855 0.00413 0.0
C5 C 0.04071 0.03921 0.00417 0.0
C6 C 0.00815 0.05363 0.00412 0.0
C7 C 0.02936 0.08053 0.00424 0.0
C8 C 0.05624 0.08676 0.00433 0.0
C9 C 0.06191 0.06610 0.00429 0.0
C10 C 0.08880 0.07234 0.00437 0.0
C11 C 0.09447 0.05168 0.00434 0.0
C12 C 0.07326 0.02479 0.00421 0.0
H13 H 0.97272 0.00146 0.00390 0.0
H14 H 0.02938 0.97636 0.00398 0.0
H15 H 0.98825 0.04902 0.00406 0.0
H16 H 0.07194 0.10668 0.00442 0.0
H17 H 0.10449 0.09225 0.00446 0.0
H18 H 0.07746 0.00949 0.00419 0.0
C19 C 0.91897 0.37361 0.76624 0.0
C20 C 0.90114 0.35106 0.78898 0.0
C21 C 0.91091 0.34372 0.82203 0.0
C22 C 0.89332 0.32117 0.84499 0.0
C23 C 0.90330 0.31394 0.87795 0.0
C24 C 0.93083 0.32924 0.88782 0.0
C25 C 0.94838 0.35181 0.86496 0.0
C26 C 0.93842 0.35903 0.83204 0.0
C27 C 0.92064 0.30239 0.94282 0.0
C28 C 0.93466 0.30116 0.97611 0.0
C29 C 0.94641 0.28539 0.97477 0.0
C30 C 0.96435 0.28796 0.00519 0.0
C31 C 0.96813 0.30388 0.03888 0.0
C32 C 0.95444 0.31782 0.04167 0.0
C33 C 0.93772 0.31649 0.01020 0.0
C34 C 0.92564 0.33202 0.01155 0.0
C35 C 0.94187 0.26873 0.94166 0.0
C36 C 0.98628 0.30651 0.06907 0.0
C37 C 0.97882 0.27491 0.00186 0.0
C38 C 0.02105 0.28392 0.99305 0.0
C39 C 0.00974 0.25632 0.99990 0.0
C40 C 0.02650 0.24560 0.00119 0.0
C41 C 0.05454 0.26249 0.99723 0.0
C42 C 0.06583 0.29008 0.99087 0.0
C43 C 0.04906 0.30081 0.98878 0.0
C44 C 0.07124 0.25172 0.99990 0.0
C45 C 0.05981 0.22413 0.00622 0.0
C46 C 0.95850 0.33422 0.07478 0.0
C47 C 0.94175 0.33258 0.13542 0.0
C48 C 0.96120 0.36003 0.13801 0.0
C49 C 0.95929 0.37571 0.16803 0.0
C50 C 0.93788 0.36389 0.19529 0.0
C51 C 0.91848 0.33643 0.19271 0.0
C52 C 0.92042 0.32075 0.16274 0.0
C53 C 0.93574 0.37951 0.22512 0.0
C54 C 0.91414 0.36755 0.25202 0.0
O55 O 0.94071 0.32248 0.92024 0.0
O56 O 0.94290 0.31747 0.10500 0.0
O57 O 0.00472 0.29452 0.99220 0.0
H58 H 0.93930 0.38477 0.77396 0.0
H59 H 0.88079 0.33985 0.78134 0.0
H60 H 0.87295 0.30985 0.83758 0.0
H61 H 0.89033 0.29729 0.89503 0.0
H62 H 0.96874 0.36316 0.87243 0.0
H63 H 0.95140 0.37571 0.81505 0.0
H64 H 0.91114 0.28434 0.92727 0.0
H65 H 0.90674 0.30756 0.95158 0.0
H66 H 0.93384 0.34550 0.03518 0.0
H67 H 0.90494 0.31962 0.01552 0.0
H68 H 0.92930 0.34248 0.98487 0.0
H69 H 0.93542 0.27521 0.91745 0.0
H70 H 0.92704 0.24917 0.94877 0.0
H71 H 0.95954 0.26926 0.93436 0.0
H72 H 0.98756 0.31996 0.09058 0.0
H73 H 0.00517 0.31359 0.05658 0.0
H74 H 0.97962 0.28794 0.08217 0.0
H75 H 0.97872 0.26621 0.02904 0.0
H76 H 0.97058 0.26040 0.97955 0.0
H77 H 0.98897 0.24386 0.00219 0.0
H78 H 0.01816 0.22517 0.00576 0.0
H79 H 0.08658 0.30257 0.98780 0.0
H80 H 0.05738 0.32125 0.98423 0.0
H81 H 0.09201 0.26413 0.99675 0.0
H82 H 0.03903 0.21176 0.00914 0.0
H83 H 0.97869 0.34490 0.08338 0.0
H84 H 0.95209 0.34742 0.06770 0.0
H85 H 0.97689 0.36874 0.11759 0.0
H86 H 0.97364 0.39605 0.16999 0.0
H87 H 0.90265 0.32773 0.21292 0.0
H88 H 0.90599 0.30045 0.16063 0.0
H89 H 0.95005 0.39987 0.22726 0.0
H90 H 0.89987 0.34720 0.24977 0.0
C91 C 0.50824 0.17371 0.25072 0.0
C92 C 0.50265 0.15121 0.22788 0.0
C93 C 0.48522 0.14381 0.19478 0.0
C94 C 0.47937 0.12130 0.17172 0.0
C95 C 0.46185 0.11400 0.13870 0.0
C96 C 0.45020 0.12921 0.12888 0.0
C97 C 0.45611 0.15175 0.15185 0.0
C98 C 0.47360 0.15903 0.18482 0.0
C99 C 0.43247 0.10236 0.07375 0.0
C100 C 0.41715 0.10107 0.04044 0.0
C101 C 0.38894 0.08520 0.04168 0.0
C102 C 0.37364 0.08769 0.01125 0.0
C103 C 0.38646 0.10365 0.97764 0.0
C104 C 0.41471 0.11769 0.97495 0.0
C105 C 0.43007 0.11642 0.00643 0.0
C106 C 0.45836 0.13205 0.00518 0.0
C107 C 0.37611 0.06851 0.07470 0.0
C108 C 0.37102 0.10619 0.94744 0.0
C109 C 0.34554 0.07453 0.01450 0.0
C110 C 0.31258 0.08336 0.02330 0.0
C111 C 0.29518 0.05575 0.01712 0.0
C112 C 0.26720 0.04492 0.01495 0.0
C113 C 0.25669 0.06172 0.01897 0.0
C114 C 0.27411 0.08932 0.02547 0.0
C115 C 0.30209 0.10015 0.02763 0.0
C116 C 0.22872 0.05083 0.01642 0.0
C117 C 0.21144 0.02323 0.00976 0.0
C118 C 0.42774 0.13412 0.94192 0.0
C119 C 0.44286 0.13257 0.88129 0.0
C120 C 0.45195 0.15999 0.87883 0.0
C121 C 0.47022 0.17573 0.84889 0.0
C122 C 0.47939 0.16400 0.82160 0.0
C123 C 0.47022 0.13655 0.82405 0.0
C124 C 0.45194 0.12082 0.85393 0.0
C125 C 0.49783 0.17968 0.79185 0.0
C126 C 0.50703 0.16780 0.76491 0.0
O127 O 0.43327 0.12240 0.09641 0.0
O128 O 0.42595 0.11740 0.91162 0.0
O129 O 0.33999 0.09407 0.02423 0.0
H130 H 0.49949 0.18481 0.24303 0.0
H131 H 0.51136 0.14006 0.23548 0.0
H132 H 0.48799 0.11004 0.17909 0.0
H133 H 0.45752 0.09738 0.12156 0.0
H134 H 0.44753 0.16303 0.14441 0.0
H135 H 0.47795 0.17568 0.20188 0.0
H136 H 0.42317 0.08430 0.08921 0.0
H137 H 0.45179 0.10761 0.06504 0.0
H138 H 0.46420 0.14554 0.98161 0.0
H139 H 0.46619 0.11973 0.00117 0.0
H140 H 0.46557 0.14251 0.03191 0.0
H141 H 0.38931 0.07503 0.09896 0.0
H142 H 0.37061 0.04897 0.06751 0.0
H143 H 0.35894 0.06895 0.08199 0.0
H144 H 0.38376 0.11968 0.92601 0.0
H145 H 0.35945 0.11320 0.95995 0.0
H146 H 0.35836 0.08762 0.93426 0.0
H147 H 0.33659 0.06582 0.98727 0.0
H148 H 0.33867 0.06002 0.03674 0.0
H149 H 0.30301 0.04336 0.01399 0.0
H150 H 0.25428 0.02448 0.01028 0.0
H151 H 0.26631 0.10174 0.02858 0.0
H152 H 0.31504 0.12061 0.03228 0.0
H153 H 0.22083 0.06318 0.01941 0.0
H154 H 0.21939 0.01094 0.00680 0.0
H155 H 0.41864 0.14473 0.93336 0.0
H156 H 0.44791 0.14737 0.94908 0.0
H157 H 0.44529 0.16865 0.89928 0.0
H158 H 0.47704 0.19606 0.84702 0.0
H159 H 0.47705 0.12792 0.80381 0.0
H160 H 0.44525 0.10054 0.85595 0.0
H161 H 0.50469 0.20001 0.78980 0.0
H162 H 0.50014 0.14746 0.76707 0.0
C163 C 0.70193 0.57050 0.76428 0.0
C164 C 0.72466 0.57634 0.78738 0.0
C165 C 0.73189 0.59361 0.82037 0.0
C166 C 0.75463 0.59969 0.84368 0.0
C167 C 0.76174 0.61705 0.87657 0.0
C168 C 0.74614 0.62829 0.88602 0.0
C169 C 0.72338 0.62214 0.86280 0.0
C170 C 0.71627 0.60482 0.82995 0.0
C171 C 0.77309 0.64613 0.94132 0.0
C172 C 0.77415 0.66122 0.97444 0.0
C173 C 0.78982 0.68928 0.97306 0.0
C174 C 0.78705 0.70429 0.00326 0.0
C175 C 0.77104 0.69138 0.03681 0.0
C176 C 0.75723 0.66333 0.03966 0.0
C177 C 0.75876 0.64823 0.00839 0.0
C178 C 0.74334 0.62011 0.00979 0.0
C179 C 0.80657 0.70220 0.94012 0.0
C180 C 0.76821 0.70655 0.06676 0.0
C181 C 0.79997 0.73219 0.99990 0.0
C182 C 0.79051 0.76454 0.99048 0.0
C183 C 0.81825 0.78211 0.99684 0.0
C184 C 0.82882 0.80985 0.99881 0.0
C185 C 0.81162 0.81996 0.99440 0.0
C186 C 0.78388 0.80237 0.98773 0.0
C187 C 0.77332 0.77464 0.98577 0.0
C188 C 0.82223 0.84769 0.99675 0.0
C189 C 0.84996 0.86514 0.00359 0.0
C190 C 0.74075 0.65020 0.07262 0.0
C191 C 0.74253 0.63528 0.13346 0.0
C192 C 0.71485 0.62590 0.13565 0.0
C193 C 0.69915 0.60763 0.16558 0.0
C194 C 0.71118 0.59875 0.19317 0.0
C195 C 0.73888 0.60821 0.19100 0.0
C196 C 0.75457 0.62649 0.16112 0.0
C197 C 0.69555 0.58031 0.22293 0.0
C198 C 0.70773 0.57141 0.25016 0.0
O199 O 0.75278 0.64506 0.91837 0.0
O200 O 0.75766 0.65221 0.10313 0.0
O201 O 0.78007 0.73737 0.98976 0.0
H202 H 0.69054 0.57895 0.77169 0.0
H203 H 0.73610 0.56793 0.78006 0.0
H204 H 0.76618 0.59138 0.83659 0.0
H205 H 0.77854 0.62156 0.89391 0.0
H206 H 0.71180 0.63042 0.86996 0.0
H207 H 0.69946 0.60029 0.81270 0.0
H208 H 0.79127 0.65559 0.92599 0.0
H209 H 0.76805 0.62700 0.95020 0.0
H210 H 0.72974 0.61413 0.03323 0.0
H211 H 0.75595 0.61257 0.01408 0.0
H212 H 0.73284 0.61287 0.98300 0.0
H213 H 0.80016 0.68911 0.91594 0.0
H214 H 0.82630 0.70791 0.94753 0.0
H215 H 0.80586 0.71912 0.93261 0.0
H216 H 0.75472 0.69377 0.08817 0.0
H217 H 0.76094 0.71785 0.05400 0.0
H218 H 0.78686 0.71930 0.08006 0.0
H219 H 0.80866 0.74113 0.02708 0.0
H220 H 0.81459 0.73920 0.97773 0.0
H221 H 0.83094 0.77458 0.00010 0.0
H222 H 0.84935 0.82290 0.00360 0.0
H223 H 0.77117 0.80988 0.98433 0.0
H224 H 0.75277 0.76156 0.98099 0.0
H225 H 0.80959 0.85529 0.99347 0.0
H226 H 0.86255 0.85749 0.00683 0.0
H227 H 0.72984 0.65901 0.08090 0.0
H228 H 0.72761 0.63013 0.06552 0.0
H229 H 0.70597 0.63235 0.11498 0.0
H230 H 0.67863 0.60061 0.16724 0.0
H231 H 0.74773 0.60159 0.21146 0.0
H232 H 0.77504 0.63340 0.15930 0.0
H233 H 0.67502 0.57325 0.22477 0.0
H234 H 0.72825 0.57851 0.24821 0.0
Zn235 Zn 0.71275 0.37342 0.50559 0.0
N236 N 0.67906 0.36327 0.53366 0.0
C237 C 0.66676 0.37329 0.52032 0.0
C238 C 0.66865 0.34564 0.55891 0.0
C239 C 0.64276 0.36566 0.53193 0.0
C240 C 0.64508 0.33715 0.57121 0.0
C241 C 0.63162 0.34631 0.55650 0.0
N242 N 0.73687 0.40463 0.53901 0.0
H243 H 0.67772 0.33884 0.56858 0.0
H244 H 0.63442 0.37345 0.52324 0.0
H245 H 0.61488 0.33956 0.56302 0.0
C246 C 0.69365 0.32178 0.48423 0.0
C247 C 0.67818 0.33863 0.44426 0.0
C248 C 0.67871 0.29846 0.46865 0.0
C249 C 0.66287 0.31623 0.42799 0.0
C250 C 0.66223 0.29586 0.44127 0.0
H251 H 0.72701 0.41299 0.44299 0.0
H252 H 0.65613 0.40581 0.49047 0.0
H253 H 0.68108 0.43840 0.45059 0.0
C254 C 0.75971 0.41835 0.52643 0.0
C255 C 0.72952 0.41248 0.56725 0.0
C256 C 0.77648 0.44124 0.54197 0.0
H257 H 0.71327 0.40239 0.57631 0.0
C258 C 0.74496 0.43485 0.58351 0.0
H259 H 0.79298 0.45055 0.53369 0.0
C260 C 0.76810 0.44981 0.56982 0.0
H261 H 0.77835 0.46585 0.57924 0.0
C262 C 0.76625 0.40833 0.49498 0.0
H263 H 0.67815 0.35263 0.43551 0.0
C264 C 0.75207 0.37893 0.44963 0.0
C265 C 0.79074 0.41825 0.48364 0.0
H266 H 0.67981 0.28492 0.47660 0.0
C267 C 0.77568 0.38760 0.43735 0.0
C268 C 0.79519 0.40655 0.45538 0.0
H269 H 0.65070 0.28013 0.43187 0.0
N270 N 0.69995 0.39473 0.47839 0.0
H271 H 0.73861 0.36540 0.43755 0.0
C272 C 0.71055 0.32617 0.51524 0.0
N273 N 0.69308 0.34113 0.47208 0.0
C274 C 0.73544 0.35301 0.56038 0.0
C275 C 0.71675 0.30888 0.52600 0.0
H276 H 0.80382 0.43245 0.49493 0.0
C277 C 0.74246 0.33697 0.57209 0.0
C278 C 0.73406 0.31535 0.55385 0.0
C279 C 0.67960 0.39256 0.49234 0.0
H280 H 0.81158 0.41169 0.44868 0.0
C281 C 0.71268 0.41180 0.45310 0.0
C282 C 0.67110 0.40800 0.48134 0.0
C283 C 0.70548 0.42770 0.44137 0.0
N284 N 0.74765 0.38911 0.47818 0.0
C285 C 0.68533 0.42661 0.45671 0.0
N286 N 0.71991 0.34761 0.53221 0.0
H287 H 0.74177 0.36824 0.57259 0.0
H288 H 0.70937 0.29331 0.51460 0.0
H289 H 0.73994 0.30486 0.56013 0.0
H290 H 0.91249 0.39040 0.69402 0.0
H291 H 0.87800 0.38862 0.72708 0.0
H292 H 0.87488 0.38306 0.65982 0.0
H293 H 0.76412 0.36654 0.62533 0.0
H294 H 0.79861 0.36832 0.59226 0.0
H295 H 0.80173 0.37388 0.65953 0.0
H296 H 0.75074 0.33485 0.63108 0.0
H297 H 0.78523 0.33663 0.59802 0.0
H298 H 0.78836 0.34219 0.66528 0.0
H299 H 0.89912 0.35871 0.69977 0.0
H300 H 0.86463 0.35693 0.73284 0.0
H301 H 0.86150 0.35137 0.66557 0.0
C302 C 0.90121 0.37513 0.71190 0.0
C303 C 0.87613 0.37221 0.71473 0.0
C304 C 0.86349 0.36779 0.67774 0.0
C305 C 0.83802 0.36486 0.68114 0.0
C306 C 0.76203 0.35012 0.61320 0.0
C307 C 0.78711 0.35304 0.61036 0.0
C308 C 0.79975 0.35747 0.64736 0.0
C309 C 0.82522 0.36040 0.64397 0.0
H310 H 0.51694 0.20240 0.27328 0.0
H311 H 0.55723 0.20556 0.27165 0.0
H312 H 0.55255 0.23521 0.30919 0.0
H313 H 0.66526 0.30415 0.37943 0.0
H314 H 0.62497 0.30099 0.38105 0.0
H315 H 0.62964 0.27134 0.34351 0.0
H316 H 0.65678 0.28435 0.41698 0.0
H317 H 0.61649 0.28119 0.41860 0.0
H318 H 0.62117 0.25154 0.38106 0.0
H319 H 0.50846 0.18260 0.31083 0.0
H320 H 0.54875 0.18575 0.30920 0.0
H321 H 0.54408 0.21541 0.34674 0.0
C322 C 0.51933 0.18849 0.28615 0.0
C323 C 0.54611 0.19965 0.29634 0.0
C324 C 0.55505 0.22133 0.32209 0.0
C325 C 0.58231 0.23245 0.33217 0.0
C326 C 0.65440 0.29826 0.40411 0.0
C327 C 0.62761 0.28710 0.39391 0.0
C328 C 0.61867 0.26541 0.36816 0.0
C329 C 0.59141 0.25429 0.35809 0.0
H330 H 0.51091 0.19804 0.72139 0.0
H331 H 0.54347 0.19598 0.68857 0.0
H332 H 0.54236 0.23424 0.68551 0.0
H333 H 0.63878 0.30462 0.57994 0.0
H334 H 0.60622 0.30667 0.61276 0.0
H335 H 0.60733 0.26841 0.61582 0.0
H336 H 0.65783 0.31578 0.61874 0.0
H337 H 0.62526 0.31784 0.65156 0.0
H338 H 0.62638 0.27958 0.65462 0.0
H339 H 0.52996 0.20920 0.76019 0.0
H340 H 0.56252 0.20714 0.72736 0.0
H341 H 0.56140 0.24540 0.72431 0.0
C342 C 0.52538 0.19754 0.73643 0.0
C343 C 0.54783 0.20765 0.71253 0.0
C344 C 0.55693 0.23377 0.70045 0.0
C345 C 0.57975 0.24376 0.67619 0.0
C346 C 0.64335 0.31628 0.60370 0.0
C347 C 0.62090 0.30616 0.62759 0.0
C348 C 0.61181 0.28004 0.63968 0.0
C349 C 0.58898 0.27006 0.66394 0.0
H350 H 0.68546 0.55570 0.31325 0.0
H351 H 0.72056 0.55020 0.30302 0.0
H352 H 0.68891 0.52388 0.34850 0.0
H353 H 0.73189 0.45454 0.40857 0.0
H354 H 0.69679 0.46004 0.41880 0.0
H355 H 0.72844 0.48636 0.37331 0.0
H356 H 0.71509 0.43291 0.37436 0.0
H357 H 0.67999 0.43840 0.38459 0.0
H358 H 0.71164 0.46472 0.33911 0.0
H359 H 0.66866 0.53406 0.27905 0.0
H360 H 0.70377 0.52857 0.26881 0.0
H361 H 0.67211 0.50225 0.31430 0.0
C362 C 0.68699 0.54804 0.28778 0.0
C363 C 0.70200 0.53625 0.29435 0.0
C364 C 0.69052 0.51619 0.32304 0.0
C365 C 0.70602 0.50441 0.32937 0.0
C366 C 0.71356 0.44056 0.39983 0.0
C367 C 0.69855 0.45235 0.39326 0.0
C368 C 0.71003 0.47242 0.36457 0.0
C369 C 0.69454 0.48420 0.35824 0.0
H370 H 0.72594 0.56951 0.71637 0.0
H371 H 0.69162 0.53376 0.68562 0.0
H372 H 0.73374 0.54049 0.68139 0.0
H373 H 0.71409 0.44566 0.57975 0.0
H374 H 0.74841 0.48141 0.61050 0.0
H375 H 0.70628 0.47468 0.61473 0.0
H376 H 0.70881 0.42816 0.61936 0.0
H377 H 0.74313 0.46391 0.65011 0.0
H378 H 0.70100 0.45717 0.65434 0.0
H379 H 0.72066 0.55200 0.75597 0.0
H380 H 0.68634 0.51626 0.72522 0.0
H381 H 0.72846 0.52299 0.72099 0.0
C382 C 0.71190 0.55449 0.73229 0.0
C383 C 0.70060 0.53150 0.70950 0.0
C384 C 0.71964 0.52537 0.69722 0.0
C385 C 0.70783 0.50196 0.67408 0.0
C386 C 0.72284 0.44318 0.60343 0.0
C387 C 0.73415 0.46616 0.62623 0.0
C388 C 0.71511 0.47229 0.63851 0.0
C389 C 0.72692 0.49571 0.66165 0.0
H390 H 0.90463 0.36134 0.31228 0.0
H391 H 0.87195 0.36406 0.28029 0.0
H392 H 0.87152 0.36225 0.34799 0.0
H393 H 0.77165 0.36686 0.38663 0.0
H394 H 0.80433 0.36415 0.41861 0.0
H395 H 0.80476 0.36596 0.35091 0.0
H396 H 0.78971 0.39894 0.38859 0.0
H397 H 0.82239 0.39622 0.42057 0.0
H398 H 0.82282 0.39803 0.35287 0.0
H399 H 0.92269 0.39342 0.31423 0.0
H400 H 0.89001 0.39614 0.28225 0.0
H401 H 0.88958 0.39433 0.34995 0.0
C402 C 0.90892 0.37805 0.29834 0.0
C403 C 0.88592 0.37941 0.29639 0.0
C404 C 0.87572 0.37897 0.33402 0.0
C405 C 0.85235 0.38036 0.33153 0.0
C406 C 0.78542 0.38223 0.40252 0.0
C407 C 0.80842 0.38087 0.40447 0.0
C408 C 0.81862 0.38132 0.36684 0.0
C409 C 0.84200 0.37992 0.36933 0.0
C410 C 0.03190 0.11636 0.00351 0.0
C411 C 0.05178 0.14333 0.01033 0.0
C412 C 0.04621 0.16363 0.00226 0.0
C413 C 0.06612 0.19060 0.00896 0.0
H414 H 0.07062 0.14827 0.02135 0.0
H415 H 0.02736 0.15869 0.99131 0.0
H416 H 0.01267 0.11146 0.99450 0.0
H417 H 0.08511 0.19486 0.01820 0.0
C418 C 0.12178 0.04215 0.00591 0.0
C419 C 0.14762 0.04581 0.00252 0.0
C420 C 0.15143 0.02423 0.00942 0.0
C421 C 0.17729 0.02792 0.00616 0.0
H422 H 0.16395 0.06450 0.99492 0.0
H423 H 0.13510 0.00553 0.01695 0.0
H424 H 0.10533 0.02310 0.01144 0.0
H425 H 0.19332 0.04717 0.00010 0.0
C426 C 0.95863 0.95631 0.00674 0.0
C427 C 0.93549 0.93132 0.99836 0.0
C428 C 0.91002 0.92596 0.01059 0.0
C429 C 0.88688 0.90093 0.00233 0.0
H430 H 0.93720 0.91677 0.98310 0.0
H431 H 0.90829 0.94052 0.02579 0.0
H432 H 0.95663 0.97124 0.02012 0.0
H433 H 0.88952 0.88646 0.98870 0.0
