data_{}
_symmetry_space_group_name_H-M    P1
_symmetry_Int_Tables_number       1
_symmetry_cell_setting            triclinic
loop_
_symmetry_equiv_pos_as_xyz
'x, y, z'
_cell_length_a     62.611
_cell_length_b     52.855
_cell_length_c     75.191
_cell_angle_alpha  90.267
_cell_angle_beta   86.726
_cell_angle_gamma  89.995
loop_
_atom_site_label
_atom_site_type_symbol
_atom_site_fract_x
_atom_site_fract_y
_atom_site_fract_z
_atom_type_partial_charge
O0 O 0.05705 0.03347 0.55968 0.0
O1 O 0.10306 0.04000 0.63215 0.0
O2 O 0.10321 0.93655 0.59405 0.0
H3 H 0.07368 0.04283 0.58835 0.0
H4 H 0.09859 0.99585 0.62241 0.0
H5 H 0.08134 0.96919 0.57570 0.0
H6 H 0.05428 0.01403 0.52965 0.0
H7 H 0.05433 0.98466 0.52667 0.0
H8 H 0.08611 0.08008 0.64249 0.0
H9 H 0.06899 0.09536 0.63251 0.0
H10 H 0.09304 0.92052 0.64138 0.0
H11 H 0.10606 0.91266 0.62384 0.0
H12 H 0.06987 0.98003 0.55230 0.0
H13 H 0.06937 0.06529 0.61171 0.0
H14 H 0.08523 0.95704 0.62868 0.0
C15 C 0.07531 0.00672 0.57916 0.0
C16 C 0.07797 0.02662 0.59130 0.0
C17 C 0.08668 0.02280 0.60722 0.0
C18 C 0.09268 0.99857 0.61152 0.0
C19 C 0.09032 0.97860 0.60042 0.0
C20 C 0.08218 0.98255 0.58374 0.0
C21 C 0.06559 0.01253 0.56173 0.0
C22 C 0.06268 0.99877 0.53080 0.0
C23 C 0.08988 0.04310 0.62011 0.0
C24 C 0.08225 0.08596 0.63089 0.0
C25 C 0.09543 0.95151 0.60462 0.0
C26 C 0.09252 0.91959 0.62853 0.0
N27 N 0.06657 0.99512 0.54916 0.0
N28 N 0.07899 0.06420 0.61941 0.0
N29 N 0.09018 0.94542 0.62155 0.0
O30 O 0.98792 0.97435 0.46542 0.0
O31 O 0.00969 0.96804 0.38246 0.0
O32 O 0.02147 0.07134 0.41891 0.0
H33 H 0.99503 0.96508 0.43306 0.0
H34 H 0.00840 0.01217 0.39317 0.0
H35 H 0.00620 0.03866 0.44294 0.0
H36 H 0.99443 0.99367 0.49491 0.0
H37 H 0.99540 0.02303 0.49778 0.0
H38 H 0.99038 0.92803 0.37765 0.0
H39 H 0.97710 0.91274 0.39230 0.0
H40 H 0.99736 0.08759 0.37691 0.0
H41 H 0.01511 0.09535 0.38971 0.0
H42 H 0.00239 0.02774 0.46868 0.0
H43 H 0.98380 0.94273 0.41206 0.0
H44 H 0.99377 0.05102 0.39130 0.0
C45 C 0.99990 0.00116 0.44139 0.0
C46 C 0.99822 0.98130 0.42899 0.0
C47 C 0.00167 0.98517 0.41119 0.0
C48 C 0.00609 0.00941 0.40533 0.0
C49 C 0.00723 0.02933 0.41666 0.0
C50 C 0.00456 0.02533 0.43500 0.0
C51 C 0.99544 0.99528 0.46092 0.0
C52 C 0.00208 0.00892 0.49131 0.0
C53 C 0.00010 0.96492 0.39791 0.0
C54 C 0.99022 0.92212 0.38986 0.0
C55 C 0.01083 0.05643 0.41116 0.0
C56 C 0.00010 0.08846 0.38931 0.0
N57 N 0.00010 0.01265 0.47264 0.0
N58 N 0.99063 0.94384 0.40182 0.0
N59 N 0.00010 0.06261 0.39663 0.0
C60 C 0.04964 0.56133 0.77151 0.0
C61 C 0.06225 0.53231 0.79220 0.0
C62 C 0.05266 0.60516 0.75076 0.0
C63 C 0.06241 0.38224 0.73840 0.0
C64 C 0.05818 0.44391 0.77543 0.0
C65 C 0.07459 0.49897 0.81278 0.0
C66 C 0.03484 0.50232 0.80702 0.0
C67 C 0.06109 0.48754 0.78228 0.0
C68 C 0.95872 0.51330 0.86847 0.0
C69 C 0.01457 0.52419 0.84909 0.0
C70 C 0.06806 0.59926 0.76126 0.0
C71 C 0.06112 0.40353 0.75159 0.0
C72 C 0.11195 0.49975 0.81770 0.0
C73 C 0.06106 0.44836 0.75875 0.0
C74 C 0.06677 0.57671 0.77194 0.0
C75 C 0.99667 0.50231 0.82647 0.0
C76 C 0.06836 0.64115 0.73479 0.0
C77 C 0.94389 0.50135 0.86670 0.0
C78 C 0.05926 0.36113 0.74040 0.0
C79 C 0.97807 0.51280 0.85482 0.0
C80 C 0.05291 0.62650 0.73912 0.0
C81 C 0.03490 0.58977 0.75135 0.0
C82 C 0.03336 0.56802 0.76128 0.0
C83 C 0.05530 0.42148 0.78110 0.0
C84 C 0.14561 0.50709 0.83804 0.0
C85 C 0.12641 0.50145 0.84479 0.0
C86 C 0.14814 0.50304 0.82039 0.0
C87 C 0.01455 0.51356 0.83269 0.0
H88 H 0.96512 0.49527 0.83404 0.0
C89 C 0.16605 0.50989 0.84624 0.0
C90 C 0.16841 0.51942 0.86044 0.0
H91 H 0.99630 0.53023 0.87176 0.0
H92 H 0.05563 0.38462 0.77318 0.0
H93 H 0.09587 0.49654 0.84037 0.0
H94 H 0.06446 0.42969 0.73376 0.0
H95 H 0.13339 0.49990 0.79700 0.0
O96 O 0.04727 0.53862 0.78095 0.0
O97 O 0.09496 0.49895 0.80550 0.0
H98 H 0.07638 0.53354 0.78620 0.0
H99 H 0.06167 0.54384 0.80229 0.0
H100 H 0.07131 0.48249 0.81792 0.0
H101 H 0.07331 0.51143 0.82232 0.0
H102 H 0.03161 0.48468 0.80943 0.0
H103 H 0.02462 0.50872 0.79891 0.0
H104 H 0.07545 0.48917 0.77682 0.0
O105 O 0.03378 0.51604 0.82246 0.0
H106 H 0.95928 0.52367 0.87843 0.0
H107 H 0.05101 0.49200 0.77351 0.0
H108 H 0.02684 0.53201 0.85284 0.0
O109 O 0.05752 0.46280 0.78808 0.0
H110 H 0.06231 0.46491 0.75461 0.0
H111 H 0.07780 0.57276 0.77924 0.0
H112 H 0.07990 0.60978 0.76178 0.0
H113 H 0.99695 0.49499 0.81517 0.0
H114 H 0.08140 0.63873 0.73990 0.0
H115 H 0.94303 0.48990 0.85737 0.0
H116 H 0.06752 0.35437 0.75264 0.0
H117 H 0.04006 0.63013 0.73405 0.0
H118 H 0.02344 0.59428 0.74467 0.0
H119 H 0.02120 0.55791 0.76100 0.0
H120 H 0.05196 0.41848 0.79312 0.0
H121 H 0.12451 0.49906 0.85703 0.0
H122 H 0.16199 0.50170 0.81533 0.0
H123 H 0.17821 0.50376 0.83993 0.0
H124 H 0.15578 0.52373 0.86687 0.0
C125 C 0.97767 0.50228 0.83793 0.0
C126 C 0.99614 0.52340 0.86035 0.0
H127 H 0.06638 0.38691 0.72679 0.0
C128 C 0.05724 0.40095 0.76870 0.0
C129 C 0.05826 0.50511 0.79869 0.0
C130 C 0.10943 0.49890 0.83491 0.0
C131 C 0.06255 0.42661 0.74589 0.0
C132 C 0.13132 0.50071 0.80932 0.0
C133 C 0.03464 0.56388 0.24764 0.0
C134 C 0.02203 0.53465 0.22691 0.0
C135 C 0.03161 0.60794 0.26844 0.0
C136 C 0.02189 0.38515 0.28053 0.0
C137 C 0.02611 0.44642 0.24357 0.0
C138 C 0.00970 0.50108 0.20629 0.0
C139 C 0.04944 0.50448 0.21205 0.0
C140 C 0.02320 0.48998 0.23677 0.0
C141 C 0.12556 0.51480 0.15061 0.0
C142 C 0.06971 0.52591 0.17001 0.0
C143 C 0.01621 0.60192 0.25794 0.0
C144 C 0.02318 0.40630 0.26736 0.0
C145 C 0.97233 0.50182 0.20137 0.0
C146 C 0.02323 0.45105 0.26025 0.0
C147 C 0.01750 0.57926 0.24723 0.0
C148 C 0.08761 0.50427 0.19260 0.0
C149 C 0.01591 0.64410 0.28446 0.0
C150 C 0.14039 0.50286 0.15237 0.0
C151 C 0.02505 0.36401 0.27849 0.0
C152 C 0.10621 0.51445 0.16426 0.0
C153 C 0.03136 0.62940 0.28011 0.0
C154 C 0.04937 0.59253 0.26783 0.0
C155 C 0.05092 0.57068 0.25788 0.0
C156 C 0.02899 0.42393 0.23787 0.0
C157 C 0.93868 0.50895 0.18104 0.0
C158 C 0.95787 0.50323 0.17428 0.0
C159 C 0.93614 0.50509 0.19868 0.0
C160 C 0.06973 0.51545 0.18639 0.0
H161 H 0.11917 0.49714 0.18502 0.0
C162 C 0.91823 0.51166 0.17285 0.0
C163 C 0.91587 0.52104 0.15866 0.0
H164 H 0.08798 0.53169 0.14734 0.0
H165 H 0.02867 0.38715 0.24575 0.0
H166 H 0.98841 0.49836 0.17870 0.0
H167 H 0.01983 0.43265 0.28522 0.0
H168 H 0.95090 0.50219 0.22207 0.0
O169 O 0.03701 0.54107 0.23817 0.0
O170 O 0.98932 0.50114 0.21357 0.0
H171 H 0.00790 0.53594 0.23292 0.0
H172 H 0.02261 0.54606 0.21684 0.0
H173 H 0.01298 0.48455 0.20113 0.0
H174 H 0.01097 0.51344 0.19676 0.0
H175 H 0.05267 0.48682 0.20962 0.0
H176 H 0.05966 0.51097 0.22017 0.0
H177 H 0.00884 0.49166 0.24223 0.0
O178 O 0.05051 0.51804 0.19664 0.0
H179 H 0.12500 0.52506 0.14066 0.0
H180 H 0.03328 0.49453 0.24556 0.0
H181 H 0.05744 0.53368 0.16627 0.0
O182 O 0.02677 0.46518 0.23095 0.0
H183 H 0.02198 0.46765 0.26441 0.0
H184 H 0.00647 0.57523 0.23992 0.0
H185 H 0.00437 0.61244 0.25743 0.0
H186 H 0.08734 0.49707 0.20389 0.0
H187 H 0.00287 0.64163 0.27935 0.0
H188 H 0.14126 0.49151 0.16169 0.0
H189 H 0.01678 0.35713 0.26625 0.0
H190 H 0.04421 0.63309 0.28519 0.0
H191 H 0.06084 0.59712 0.27451 0.0
H192 H 0.06308 0.56057 0.25814 0.0
H193 H 0.03233 0.42080 0.22585 0.0
H194 H 0.95978 0.50071 0.16204 0.0
H195 H 0.92229 0.50380 0.20374 0.0
H196 H 0.90608 0.50560 0.17915 0.0
H197 H 0.92849 0.52528 0.15223 0.0
C198 C 0.10661 0.50411 0.18115 0.0
C199 C 0.08814 0.52499 0.15875 0.0
H200 H 0.01792 0.38994 0.29214 0.0
C201 C 0.02706 0.40353 0.25025 0.0
C202 C 0.02602 0.50737 0.22039 0.0
C203 C 0.97486 0.50078 0.18416 0.0
C204 C 0.02174 0.42944 0.27309 0.0
C205 C 0.95297 0.50287 0.20975 0.0
C206 C 0.72190 0.51340 0.01125 0.0
C207 C 0.71478 0.51351 0.99412 0.0
C208 C 0.70746 0.51259 0.02594 0.0
C209 C 0.69312 0.51214 0.99159 0.0
C210 C 0.68553 0.51121 0.02345 0.0
C211 C 0.67861 0.51077 0.00633 0.0
C212 C 0.62214 0.50495 0.01163 0.0
C213 C 0.61473 0.50629 0.99544 0.0
C214 C 0.60799 0.50529 0.02588 0.0
C215 C 0.59253 0.50503 0.99334 0.0
C216 C 0.58616 0.50383 0.02413 0.0
C217 C 0.57857 0.50348 0.00738 0.0
H218 H 0.73650 0.51386 0.01291 0.0
H219 H 0.68823 0.51212 0.98016 0.0
H220 H 0.67570 0.51058 0.03322 0.0
H221 H 0.62420 0.50801 0.98553 0.0
H222 H 0.61308 0.50657 0.03721 0.0
H223 H 0.58755 0.50531 0.98191 0.0
H224 H 0.57678 0.50308 0.03415 0.0
N225 N 0.65661 0.50915 0.00221 0.0
N226 N 0.64431 0.50645 0.01544 0.0
C227 C 0.36238 0.51334 0.00784 0.0
C228 C 0.36951 0.51363 0.02496 0.0
C229 C 0.37682 0.51237 0.99315 0.0
C230 C 0.39116 0.51230 0.02749 0.0
C231 C 0.39875 0.51102 0.99563 0.0
C232 C 0.40567 0.51077 0.01275 0.0
C233 C 0.46215 0.50489 0.00744 0.0
C234 C 0.46956 0.50641 0.02364 0.0
C235 C 0.47629 0.50508 0.99320 0.0
C236 C 0.49176 0.50517 0.02574 0.0
C237 C 0.49812 0.50364 0.99495 0.0
C238 C 0.50571 0.50347 0.01170 0.0
H239 H 0.34779 0.51378 0.00617 0.0
H240 H 0.39605 0.51240 0.03892 0.0
H241 H 0.40858 0.51029 0.98586 0.0
H242 H 0.46008 0.50824 0.03355 0.0
H243 H 0.47120 0.50623 0.98186 0.0
H244 H 0.49674 0.50557 0.03716 0.0
H245 H 0.50750 0.50278 0.98493 0.0
N246 N 0.42768 0.50920 0.01687 0.0
N247 N 0.43998 0.50635 0.00364 0.0
C248 C 0.88650 0.52838 0.88965 0.0
C249 C 0.87827 0.50448 0.89946 0.0
C250 C 0.89128 0.47976 0.89790 0.0
C251 C 0.91250 0.47894 0.88650 0.0
C252 C 0.92073 0.50283 0.87669 0.0
C253 C 0.90773 0.52756 0.87826 0.0
C254 C 0.85701 0.50528 0.91080 0.0
C255 C 0.83573 0.50605 0.92213 0.0
C256 C 0.81444 0.50679 0.93344 0.0
C257 C 0.79313 0.50751 0.94472 0.0
C258 C 0.77181 0.50822 0.95598 0.0
C259 C 0.76342 0.48415 0.96549 0.0
C260 C 0.74205 0.48482 0.97669 0.0
C261 C 0.72909 0.50956 0.97839 0.0
C262 C 0.73750 0.53363 0.96890 0.0
C263 C 0.75886 0.53296 0.95769 0.0
H264 H 0.87689 0.54669 0.89082 0.0
H265 H 0.88519 0.46207 0.90516 0.0
H266 H 0.92213 0.46064 0.88535 0.0
H267 H 0.91383 0.54526 0.87100 0.0
H268 H 0.77301 0.46583 0.96423 0.0
H269 H 0.73583 0.46700 0.98372 0.0
H270 H 0.72790 0.55195 0.97017 0.0
H271 H 0.76508 0.55078 0.95066 0.0
C272 C 0.86905 0.53682 0.12769 0.0
C273 C 0.86023 0.51157 0.12092 0.0
C274 C 0.87109 0.48648 0.12552 0.0
C275 C 0.89080 0.48664 0.13686 0.0
C276 C 0.89964 0.51188 0.14363 0.0
C277 C 0.88876 0.53698 0.13905 0.0
C278 C 0.84056 0.51142 0.10952 0.0
C279 C 0.82091 0.51125 0.09810 0.0
C280 C 0.80128 0.51106 0.08666 0.0
C281 C 0.78168 0.51087 0.07518 0.0
C282 C 0.76210 0.51068 0.06369 0.0
C283 C 0.75356 0.48544 0.05665 0.0
C284 C 0.73404 0.48524 0.04509 0.0
C285 C 0.72304 0.51028 0.04059 0.0
C286 C 0.73156 0.53552 0.04765 0.0
C287 C 0.75109 0.53571 0.05920 0.0
H288 H 0.86100 0.55539 0.12431 0.0
H289 H 0.86455 0.46779 0.12051 0.0
H290 H 0.89884 0.46807 0.14026 0.0
H291 H 0.89530 0.55566 0.14406 0.0
H292 H 0.76171 0.46690 0.05998 0.0
H293 H 0.72773 0.46656 0.03987 0.0
H294 H 0.72341 0.55405 0.04432 0.0
H295 H 0.75740 0.55440 0.06442 0.0
C296 C 0.22453 0.49562 0.88058 0.0
C297 C 0.22376 0.50992 0.89850 0.0
C298 C 0.20340 0.52440 0.90494 0.0
C299 C 0.18381 0.52461 0.89345 0.0
C300 C 0.18458 0.51033 0.87553 0.0
C301 C 0.20494 0.49583 0.86910 0.0
C302 C 0.24337 0.50977 0.90997 0.0
C303 C 0.26298 0.50966 0.92143 0.0
C304 C 0.28260 0.50960 0.93288 0.0
C305 C 0.30223 0.50959 0.94433 0.0
C306 C 0.32186 0.50960 0.95576 0.0
C307 C 0.32119 0.52432 0.97351 0.0
C308 C 0.34085 0.52443 0.98491 0.0
C309 C 0.36118 0.50981 0.97858 0.0
C310 C 0.36184 0.49507 0.96084 0.0
C311 C 0.34218 0.49497 0.94943 0.0
H312 H 0.23959 0.48488 0.87582 0.0
H313 H 0.20283 0.53497 0.91821 0.0
H314 H 0.16874 0.53534 0.89822 0.0
H315 H 0.20551 0.48525 0.85583 0.0
H316 H 0.30614 0.53516 0.97820 0.0
H317 H 0.34036 0.53534 0.99804 0.0
H318 H 0.37688 0.48424 0.95615 0.0
H319 H 0.34267 0.48406 0.93630 0.0
C320 C 0.19164 0.52907 0.12095 0.0
C321 C 0.20600 0.50540 0.11959 0.0
C322 C 0.19912 0.48112 0.12960 0.0
C323 C 0.17790 0.48052 0.14100 0.0
C324 C 0.16355 0.50419 0.14238 0.0
C325 C 0.17042 0.52846 0.13235 0.0
C326 C 0.22725 0.50602 0.10823 0.0
C327 C 0.24853 0.50664 0.09690 0.0
C328 C 0.26982 0.50726 0.08560 0.0
C329 C 0.29113 0.50788 0.07433 0.0
C330 C 0.31246 0.50850 0.06307 0.0
C331 C 0.32698 0.48496 0.06201 0.0
C332 C 0.34835 0.48561 0.05083 0.0
C333 C 0.35519 0.50980 0.04068 0.0
C334 C 0.34066 0.53333 0.04173 0.0
C335 C 0.31930 0.53268 0.05292 0.0
H336 H 0.19672 0.54703 0.11352 0.0
H337 H 0.20974 0.46360 0.12859 0.0
H338 H 0.17281 0.46255 0.14842 0.0
H339 H 0.15979 0.54598 0.13336 0.0
H340 H 0.32191 0.46706 0.06953 0.0
H341 H 0.35910 0.46819 0.05005 0.0
H342 H 0.34573 0.55123 0.03421 0.0
H343 H 0.30854 0.55011 0.05370 0.0
H344 H 0.57626 0.46986 0.03389 0.0
H345 H 0.56179 0.42990 0.03579 0.0
H346 H 0.52990 0.42120 0.02374 0.0
H347 H 0.51225 0.45263 0.00938 0.0
H348 H 0.51087 0.49307 0.99644 0.0
H349 H 0.53080 0.51108 0.99648 0.0
H350 H 0.55300 0.52451 0.01925 0.0
H351 H 0.57367 0.51375 0.02730 0.0
C352 C 0.53365 0.48044 0.01277 0.0
C353 C 0.55318 0.48583 0.02013 0.0
C354 C 0.56334 0.46659 0.02881 0.0
C355 C 0.55462 0.44257 0.03002 0.0
C356 C 0.53572 0.43737 0.02286 0.0
C357 C 0.52523 0.45622 0.01427 0.0
C358 C 0.52113 0.50083 0.00397 0.0
C359 C 0.56381 0.51142 0.01793 0.0
C360 C 0.07911 0.13600 0.66259 0.0
C361 C 0.08135 0.16134 0.65264 0.0
C362 C 0.08603 0.16158 0.63231 0.0
C363 C 0.08849 0.13646 0.62193 0.0
C364 C 0.08627 0.11112 0.63188 0.0
C365 C 0.08157 0.11088 0.65221 0.0
C366 C 0.07896 0.18646 0.66302 0.0
C367 C 0.07659 0.21158 0.67340 0.0
C368 C 0.07427 0.23672 0.68378 0.0
C369 C 0.07198 0.26186 0.69415 0.0
C370 C 0.06972 0.28700 0.70451 0.0
C371 C 0.07239 0.31231 0.69457 0.0
C372 C 0.07022 0.33745 0.70495 0.0
C373 C 0.06538 0.33729 0.72526 0.0
C374 C 0.06270 0.31197 0.73519 0.0
C375 C 0.06487 0.28683 0.72482 0.0
H376 H 0.07563 0.13582 0.67763 0.0
H377 H 0.08768 0.18034 0.62495 0.0
H378 H 0.09196 0.13664 0.60688 0.0
H379 H 0.07991 0.09212 0.65957 0.0
H380 H 0.07598 0.31243 0.67954 0.0
H381 H 0.07221 0.35619 0.69759 0.0
H382 H 0.05910 0.31185 0.75022 0.0
H383 H 0.06289 0.26809 0.73218 0.0
C384 C 0.10264 0.86100 0.65584 0.0
C385 C 0.08375 0.84294 0.65332 0.0
C386 C 0.06644 0.84993 0.64045 0.0
C387 C 0.06800 0.87501 0.63012 0.0
C388 C 0.08689 0.89308 0.63264 0.0
C389 C 0.10421 0.88608 0.64550 0.0
C390 C 0.08215 0.81790 0.66370 0.0
C391 C 0.08051 0.79287 0.67409 0.0
C392 C 0.07885 0.76786 0.68450 0.0
C393 C 0.07716 0.74287 0.69494 0.0
C394 C 0.07544 0.71789 0.70538 0.0
C395 C 0.05631 0.70009 0.70309 0.0
C396 C 0.05455 0.67517 0.71360 0.0
C397 C 0.07192 0.66803 0.72637 0.0
C398 C 0.09106 0.68581 0.72865 0.0
C399 C 0.09282 0.71074 0.71815 0.0
H400 H 0.11547 0.85582 0.66536 0.0
H401 H 0.05246 0.83655 0.63858 0.0
H402 H 0.05518 0.88018 0.62059 0.0
H403 H 0.11820 0.89946 0.64736 0.0
H404 H 0.04345 0.70538 0.69364 0.0
H405 H 0.04038 0.66200 0.71191 0.0
H406 H 0.10392 0.68052 0.73810 0.0
H407 H 0.10699 0.72391 0.71983 0.0
C408 C 0.99804 0.87199 0.35614 0.0
C409 C 0.00010 0.84686 0.36609 0.0
C410 C 0.00149 0.84683 0.38651 0.0
C411 C 0.99990 0.87193 0.39697 0.0
C412 C 0.99751 0.89707 0.38703 0.0
C413 C 0.99653 0.89710 0.36661 0.0
C414 C 0.00210 0.82176 0.35561 0.0
C415 C 0.00370 0.79665 0.34514 0.0
C416 C 0.00535 0.77154 0.33469 0.0
C417 C 0.00703 0.74643 0.32423 0.0
C418 C 0.00874 0.72132 0.31378 0.0
C419 C 0.01164 0.69627 0.32373 0.0
C420 C 0.01345 0.67117 0.31328 0.0
C421 C 0.01233 0.67111 0.29287 0.0
C422 C 0.00940 0.69617 0.28292 0.0
C423 C 0.00760 0.72127 0.29338 0.0
H424 H 0.99731 0.87202 0.34102 0.0
H425 H 0.00332 0.82822 0.39387 0.0
H426 H 0.00010 0.87191 0.41209 0.0
H427 H 0.99468 0.91571 0.35924 0.0
H428 H 0.01248 0.69631 0.33884 0.0
H429 H 0.01562 0.65262 0.32064 0.0
H430 H 0.00856 0.69612 0.26782 0.0
H431 H 0.00544 0.73982 0.28601 0.0
C432 C 0.99619 0.16551 0.38605 0.0
C433 C 0.00219 0.16517 0.36590 0.0
C434 C 0.00597 0.13979 0.35608 0.0
C435 C 0.00379 0.11475 0.36641 0.0
C436 C 0.99781 0.11509 0.38656 0.0
C437 C 0.99401 0.14047 0.39638 0.0
C438 C 0.00444 0.19021 0.35558 0.0
C439 C 0.00672 0.21525 0.34525 0.0
C440 C 0.00904 0.24027 0.33491 0.0
C441 C 0.01141 0.26530 0.32458 0.0
C442 C 0.01380 0.29032 0.31424 0.0
C443 C 0.02020 0.28993 0.29416 0.0
C444 C 0.02268 0.31495 0.28384 0.0
C445 C 0.01875 0.34035 0.29359 0.0
C446 C 0.01233 0.34073 0.31367 0.0
C447 C 0.00985 0.31571 0.32400 0.0
H448 H 0.99337 0.18429 0.39332 0.0
H449 H 0.01039 0.13954 0.34116 0.0
H450 H 0.00659 0.09596 0.35914 0.0
H451 H 0.98957 0.14072 0.41130 0.0
H452 H 0.02312 0.27112 0.28694 0.0
H453 H 0.02744 0.31467 0.26898 0.0
H454 H 0.00941 0.35954 0.32089 0.0
H455 H 0.00510 0.31600 0.33886 0.0
C456 C 0.02443 0.99115 0.49767 0.0
H457 H 0.04632 0.99058 0.52824 0.0
H458 H 0.04580 0.01791 0.52039 0.0
H459 H 0.05368 0.97343 0.50038 0.0
H460 H 0.05633 0.00010 0.49195 0.0
H461 H 0.02238 0.98376 0.48605 0.0
H462 H 0.01674 0.98079 0.50654 0.0
C463 C 0.05285 0.00159 0.51919 0.0
C464 C 0.04852 0.99073 0.50113 0.0
