data_{}
_symmetry_space_group_name_H-M    P1
_symmetry_Int_Tables_number       1
_symmetry_cell_setting            triclinic
loop_
_symmetry_equiv_pos_as_xyz
'x, y, z'
_cell_length_a     72.225
_cell_length_b     70.942
_cell_length_c     35.221
_cell_angle_alpha  91.121
_cell_angle_beta   90.224
_cell_angle_gamma  120.408
loop_
_atom_site_label
_atom_site_type_symbol
_atom_site_fract_x
_atom_site_fract_y
_atom_site_fract_z
_atom_type_partial_charge
C0 C 0.03371 0.05727 0.01694 0.0
C1 C 0.01454 0.05823 0.01852 0.0
C2 C 0.99546 0.03930 0.01522 0.0
C3 C 0.99415 0.01874 0.01113 0.0
C4 C 0.01336 0.01881 0.01034 0.0
C5 C 0.03290 0.03744 0.01241 0.0
C6 C 0.07179 0.07689 0.02086 0.0
C7 C 0.97519 0.05755 0.02118 0.0
C8 C 0.99600 0.97928 0.01304 0.0
H9 H 0.01511 0.07184 0.02179 0.0
H10 H 0.98072 0.00551 0.00901 0.0
H11 H 0.04574 0.03686 0.01083 0.0
H12 H 0.07231 0.06836 0.04237 0.0
H13 H 0.07287 0.06998 0.99694 0.0
H14 H 0.98202 0.06458 0.04592 0.0
O15 O 0.05230 0.07700 0.02114 0.0
O16 O 0.97591 0.03785 0.01513 0.0
H17 H 0.98287 0.06798 0.00010 0.0
O18 O 0.01425 0.99990 0.00565 0.0
H19 H 0.98717 0.98096 0.03280 0.0
H20 H 0.98709 0.97302 0.98971 0.0
C21 C 0.66856 0.17459 0.76881 0.0
C22 C 0.65328 0.15442 0.79178 0.0
C23 C 0.66203 0.14808 0.82614 0.0
C24 C 0.64697 0.12791 0.84933 0.0
C25 C 0.65590 0.12167 0.88361 0.0
C26 C 0.67986 0.13558 0.89453 0.0
C27 C 0.69489 0.15576 0.87143 0.0
C28 C 0.68597 0.16199 0.83721 0.0
C29 C 0.67137 0.11174 0.95109 0.0
C30 C 0.68372 0.11087 0.98589 0.0
C31 C 0.69453 0.09697 0.98420 0.0
C32 C 0.71026 0.09951 0.01614 0.0
C33 C 0.71313 0.11379 0.05170 0.0
C34 C 0.70066 0.12604 0.05482 0.0
C35 C 0.68596 0.12461 0.02183 0.0
C36 C 0.67488 0.13829 0.02352 0.0
C37 C 0.69101 0.08203 0.94923 0.0
C38 C 0.72905 0.11638 0.08340 0.0
C39 C 0.72340 0.08805 0.01247 0.0
C40 C 0.76058 0.09647 0.00390 0.0
C41 C 0.75124 0.07184 0.00941 0.0
C42 C 0.76634 0.06248 0.01147 0.0
C43 C 0.79074 0.07778 0.00803 0.0
C44 C 0.80007 0.10240 0.00220 0.0
C45 C 0.78497 0.11176 0.00010 0.0
C46 C 0.80579 0.06837 0.01048 0.0
C47 C 0.79634 0.04375 0.01648 0.0
C48 C 0.70376 0.14074 0.08979 0.0
C49 C 0.68882 0.13926 0.15280 0.0
C50 C 0.70535 0.16387 0.15637 0.0
C51 C 0.70319 0.17786 0.18804 0.0
C52 C 0.68447 0.16721 0.21596 0.0
C53 C 0.66799 0.14259 0.21240 0.0
C54 C 0.67016 0.12860 0.18079 0.0
C55 C 0.68211 0.18114 0.24743 0.0
C56 C 0.66322 0.17035 0.27497 0.0
O57 O 0.68869 0.12975 0.92825 0.0
O58 O 0.69029 0.12577 0.12073 0.0
O59 O 0.74587 0.10572 0.00314 0.0
H60 H 0.68626 0.18474 0.77733 0.0
H61 H 0.63557 0.14423 0.78335 0.0
H62 H 0.62924 0.11762 0.84114 0.0
H63 H 0.64479 0.10678 0.90086 0.0
H64 H 0.71261 0.16608 0.87970 0.0
H65 H 0.69709 0.17691 0.82004 0.0
H66 H 0.66345 0.09555 0.93434 0.0
H67 H 0.65892 0.11621 0.96022 0.0
H68 H 0.68175 0.15042 0.04856 0.0
H69 H 0.65687 0.12708 0.02715 0.0
H70 H 0.67793 0.14756 0.99601 0.0
H71 H 0.68520 0.08767 0.92409 0.0
H72 H 0.67834 0.06451 0.95600 0.0
H73 H 0.70665 0.08266 0.94179 0.0
H74 H 0.72980 0.12840 0.10617 0.0
H75 H 0.74563 0.12284 0.07073 0.0
H76 H 0.72358 0.09984 0.09652 0.0
H77 H 0.72346 0.08038 0.04058 0.0
H78 H 0.71653 0.07501 0.98877 0.0
H79 H 0.73316 0.06056 0.01212 0.0
H80 H 0.75946 0.04425 0.01564 0.0
H81 H 0.81814 0.11370 0.99990 0.0
H82 H 0.79184 0.13000 0.99599 0.0
H83 H 0.82388 0.07962 0.00791 0.0
H84 H 0.77825 0.03255 0.01902 0.0
H85 H 0.72134 0.15046 0.09920 0.0
H86 H 0.69777 0.15239 0.08268 0.0
H87 H 0.71907 0.17172 0.13545 0.0
H88 H 0.71538 0.19609 0.19073 0.0
H89 H 0.65414 0.13475 0.23310 0.0
H90 H 0.65790 0.11040 0.17794 0.0
H91 H 0.69426 0.19938 0.25031 0.0
H92 H 0.65110 0.15211 0.27198 0.0
C93 C 0.50013 0.38667 0.28229 0.0
C94 C 0.49517 0.36641 0.25768 0.0
C95 C 0.47983 0.35993 0.22314 0.0
C96 C 0.47465 0.33967 0.19831 0.0
C97 C 0.45924 0.33329 0.16387 0.0
C98 C 0.44903 0.34716 0.15441 0.0
C99 C 0.45426 0.36743 0.17915 0.0
C100 C 0.46965 0.37381 0.21354 0.0
C101 C 0.43336 0.32309 0.09615 0.0
C102 C 0.41986 0.32209 0.06161 0.0
C103 C 0.39525 0.30819 0.06271 0.0
C104 C 0.38178 0.31060 0.03132 0.0
C105 C 0.39284 0.32474 0.99671 0.0
C106 C 0.41747 0.33699 0.99403 0.0
C107 C 0.43100 0.33568 0.02657 0.0
C108 C 0.45567 0.34936 0.02545 0.0
C109 C 0.38419 0.29339 0.09666 0.0
C110 C 0.37924 0.32721 0.96557 0.0
C111 C 0.35728 0.29915 0.03460 0.0
C112 C 0.32854 0.30761 0.04463 0.0
C113 C 0.31334 0.28296 0.03736 0.0
C114 C 0.28892 0.27359 0.03509 0.0
C115 C 0.27976 0.28890 0.04011 0.0
C116 C 0.29498 0.31355 0.04771 0.0
C117 C 0.31940 0.32291 0.04996 0.0
C118 C 0.25534 0.27949 0.03745 0.0
C119 C 0.24025 0.25484 0.02968 0.0
C120 C 0.42871 0.35155 0.96006 0.0
C121 C 0.44167 0.34982 0.89657 0.0
C122 C 0.44959 0.37441 0.89494 0.0
C123 C 0.46541 0.38828 0.86409 0.0
C124 C 0.47331 0.37751 0.83503 0.0
C125 C 0.46533 0.35290 0.83665 0.0
C126 C 0.44950 0.33904 0.86744 0.0
C127 C 0.48929 0.39133 0.80436 0.0
C128 C 0.49722 0.38043 0.77567 0.0
O129 O 0.43413 0.34119 0.12055 0.0
O130 O 0.42704 0.33645 0.92784 0.0
O131 O 0.35246 0.31687 0.04560 0.0
H132 H 0.49246 0.39679 0.27485 0.0
H133 H 0.50281 0.35625 0.26503 0.0
H134 H 0.48221 0.32941 0.20541 0.0
H135 H 0.45540 0.31833 0.14540 0.0
H136 H 0.44674 0.37772 0.17197 0.0
H137 H 0.47351 0.38879 0.23192 0.0
H138 H 0.42530 0.30697 0.11170 0.0
H139 H 0.45018 0.32753 0.08698 0.0
H140 H 0.46068 0.36139 0.00133 0.0
H141 H 0.46250 0.33813 0.02066 0.0
H142 H 0.46206 0.35874 0.05362 0.0
H143 H 0.39580 0.29912 0.12201 0.0
H144 H 0.37936 0.27583 0.08847 0.0
H145 H 0.36923 0.29405 0.10453 0.0
H146 H 0.39027 0.33914 0.94357 0.0
H147 H 0.36919 0.33372 0.97906 0.0
H148 H 0.36815 0.31061 0.95128 0.0
H149 H 0.34936 0.29138 0.00601 0.0
H150 H 0.35137 0.28621 0.05732 0.0
H151 H 0.32017 0.27166 0.03349 0.0
H152 H 0.27763 0.25534 0.02962 0.0
H153 H 0.28817 0.32487 0.05156 0.0
H154 H 0.33071 0.34118 0.05542 0.0
H155 H 0.24846 0.29074 0.04117 0.0
H156 H 0.24718 0.24363 0.02598 0.0
H157 H 0.42073 0.36123 0.95169 0.0
H158 H 0.44634 0.36322 0.96774 0.0
H159 H 0.44385 0.38235 0.91671 0.0
H160 H 0.47134 0.40651 0.86284 0.0
H161 H 0.47122 0.34498 0.81510 0.0
H162 H 0.44367 0.32085 0.86885 0.0
H163 H 0.49525 0.40956 0.80293 0.0
H164 H 0.49122 0.36219 0.77722 0.0
C165 C 0.87645 0.54574 0.75883 0.0
C166 C 0.89622 0.55034 0.78290 0.0
C167 C 0.90300 0.56610 0.81758 0.0
C168 C 0.92279 0.57093 0.84187 0.0
C169 C 0.92947 0.58678 0.87646 0.0
C170 C 0.91639 0.59777 0.88661 0.0
C171 C 0.89659 0.59289 0.86241 0.0
C172 C 0.88991 0.57707 0.82787 0.0
C173 C 0.94022 0.61343 0.94445 0.0
C174 C 0.94165 0.62746 0.97927 0.0
C175 C 0.95581 0.65248 0.97828 0.0
C176 C 0.95394 0.66656 0.01006 0.0
C177 C 0.93999 0.65568 0.04487 0.0
C178 C 0.92742 0.63060 0.04739 0.0
C179 C 0.92823 0.61648 0.01450 0.0
C180 C 0.91427 0.59139 0.01550 0.0
C181 C 0.97040 0.66335 0.94409 0.0
C182 C 0.93807 0.66990 0.07641 0.0
C183 C 0.96573 0.69153 0.00696 0.0
C184 C 0.95839 0.72144 0.99786 0.0
C185 C 0.98270 0.73643 0.00468 0.0
C186 C 0.99249 0.76139 0.00719 0.0
C187 C 0.97795 0.77130 0.00289 0.0
C188 C 0.95365 0.75629 0.99574 0.0
C189 C 0.94386 0.73134 0.99323 0.0
C190 C 0.98778 0.79626 0.00580 0.0
C191 C 0.01208 0.81114 0.01311 0.0
C192 C 0.91306 0.61953 0.08159 0.0
C193 C 0.91445 0.60629 0.14474 0.0
C194 C 0.89044 0.59886 0.14698 0.0
C195 C 0.87662 0.58302 0.17793 0.0
C196 C 0.88683 0.57463 0.20646 0.0
C197 C 0.91086 0.58213 0.20423 0.0
C198 C 0.92469 0.59798 0.17333 0.0
C199 C 0.87305 0.55864 0.23722 0.0
C200 C 0.88340 0.55021 0.26538 0.0
O201 O 0.92265 0.61310 0.92061 0.0
O202 O 0.92777 0.62092 0.11335 0.0
O203 O 0.94873 0.69700 0.99665 0.0
H204 H 0.86691 0.55400 0.76678 0.0
H205 H 0.90581 0.54212 0.77505 0.0
H206 H 0.93247 0.56280 0.83426 0.0
H207 H 0.94408 0.59036 0.89453 0.0
H208 H 0.88688 0.60100 0.87009 0.0
H209 H 0.87528 0.57348 0.80989 0.0
H210 H 0.95602 0.62122 0.92856 0.0
H211 H 0.93544 0.59621 0.95338 0.0
H212 H 0.90253 0.58666 0.03990 0.0
H213 H 0.92493 0.58402 0.01977 0.0
H214 H 0.90496 0.58498 0.98749 0.0
H215 H 0.96447 0.65144 0.91866 0.0
H216 H 0.98753 0.66783 0.95182 0.0
H217 H 0.97020 0.67880 0.93658 0.0
H218 H 0.92624 0.65894 0.09856 0.0
H219 H 0.93205 0.68044 0.06336 0.0
H220 H 0.95446 0.68091 0.09041 0.0
H221 H 0.97353 0.69957 0.03548 0.0
H222 H 0.97838 0.69717 0.98395 0.0
H223 H 0.99342 0.72905 0.00802 0.0
H224 H 0.01048 0.77253 0.01233 0.0
H225 H 0.94290 0.76365 0.99241 0.0
H226 H 0.92586 0.72017 0.98811 0.0
H227 H 0.97710 0.80370 0.00260 0.0
H228 H 0.02271 0.80365 0.01628 0.0
H229 H 0.90395 0.62810 0.09046 0.0
H230 H 0.90124 0.60164 0.07388 0.0
H231 H 0.88290 0.60496 0.12561 0.0
H232 H 0.85882 0.57745 0.17964 0.0
H233 H 0.91838 0.57589 0.22538 0.0
H234 H 0.94245 0.60345 0.17147 0.0
H235 H 0.85525 0.55303 0.23911 0.0
H236 H 0.90121 0.55586 0.26337 0.0
C237 C 0.65177 0.30110 0.58933 0.0
Cu238 Cu 0.67902 0.36854 0.52132 0.0
C239 C 0.64792 0.32396 0.54576 0.0
N240 N 0.68698 0.39538 0.48613 0.0
C241 C 0.67831 0.33855 0.58411 0.0
C242 C 0.68120 0.40965 0.49988 0.0
H243 H 0.64759 0.36496 0.45546 0.0
C244 C 0.63982 0.30385 0.56243 0.0
C245 C 0.69976 0.40094 0.45644 0.0
C246 C 0.67084 0.31862 0.60153 0.0
C247 C 0.68833 0.42964 0.48332 0.0
C248 C 0.70209 0.43549 0.45374 0.0
C249 C 0.70738 0.42090 0.43901 0.0
H250 H 0.60701 0.30100 0.51951 0.0
N251 N 0.69613 0.35627 0.49113 0.0
H252 H 0.70797 0.44959 0.44339 0.0
H253 H 0.70381 0.39098 0.44676 0.0
H254 H 0.68365 0.43919 0.49248 0.0
H255 H 0.59062 0.31114 0.47397 0.0
H256 H 0.63374 0.40987 0.58257 0.0
H257 H 0.65170 0.36506 0.59329 0.0
H258 H 0.65746 0.42483 0.53286 0.0
H259 H 0.64691 0.28712 0.59958 0.0
H260 H 0.69179 0.35062 0.59197 0.0
H261 H 0.62603 0.29208 0.55519 0.0
C262 C 0.75297 0.41338 0.56401 0.0
C263 C 0.72500 0.38292 0.53040 0.0
H264 H 0.72708 0.33042 0.45935 0.0
C265 C 0.71641 0.40312 0.57128 0.0
C266 C 0.71664 0.36422 0.50354 0.0
H267 H 0.67326 0.33392 0.45783 0.0
C268 C 0.74656 0.39599 0.53960 0.0
C269 C 0.68761 0.33950 0.46657 0.0
C270 C 0.73791 0.41672 0.58124 0.0
C271 C 0.72864 0.35520 0.49085 0.0
C272 C 0.71941 0.33746 0.46674 0.0
C273 C 0.69902 0.32986 0.45319 0.0
H274 H 0.74317 0.36133 0.49885 0.0
N275 N 0.66531 0.38475 0.55064 0.0
H276 H 0.76779 0.42313 0.56905 0.0
H277 H 0.70597 0.40572 0.58260 0.0
H278 H 0.75679 0.39283 0.52902 0.0
N279 N 0.66719 0.34124 0.55690 0.0
C280 C 0.64230 0.40386 0.57496 0.0
C281 C 0.66686 0.40221 0.53257 0.0
N282 N 0.71003 0.38661 0.54650 0.0
C283 C 0.65279 0.37726 0.58059 0.0
C284 C 0.63649 0.32830 0.51576 0.0
C285 C 0.65573 0.41222 0.54504 0.0
C286 C 0.60556 0.31997 0.47914 0.0
C287 C 0.63924 0.35188 0.46891 0.0
C288 C 0.64124 0.38675 0.59401 0.0
C289 C 0.61504 0.31436 0.50668 0.0
C290 C 0.61772 0.33842 0.45893 0.0
N291 N 0.64847 0.34702 0.49660 0.0
C292 C 0.66464 0.19282 0.73434 0.0
C293 C 0.65023 0.20272 0.72786 0.0
C294 C 0.65806 0.22291 0.70300 0.0
C295 C 0.64366 0.23282 0.69659 0.0
C296 C 0.65151 0.25305 0.67181 0.0
C297 C 0.67374 0.26335 0.65342 0.0
C298 C 0.68813 0.25341 0.65977 0.0
C299 C 0.68029 0.23319 0.68457 0.0
C300 C 0.68160 0.28360 0.62870 0.0
C301 C 0.66723 0.29355 0.62239 0.0
H302 H 0.63377 0.19509 0.74147 0.0
H303 H 0.62720 0.22519 0.71018 0.0
H304 H 0.64085 0.26038 0.66707 0.0
H305 H 0.70457 0.26102 0.64612 0.0
H306 H 0.69093 0.22584 0.68927 0.0
H307 H 0.69806 0.29122 0.61506 0.0
H308 H 0.68258 0.20170 0.72849 0.0
H309 H 0.64982 0.28279 0.63116 0.0
C310 C 0.52682 0.38830 0.32434 0.0
C311 C 0.53581 0.37288 0.31847 0.0
C312 C 0.55101 0.37225 0.34852 0.0
C313 C 0.56003 0.35686 0.34259 0.0
C314 C 0.57528 0.35627 0.37259 0.0
C315 C 0.58151 0.37106 0.40853 0.0
C316 C 0.57246 0.38642 0.41450 0.0
C317 C 0.55721 0.38702 0.38449 0.0
C318 C 0.59679 0.37049 0.43850 0.0
C319 C 0.60586 0.35515 0.43250 0.0
H320 H 0.53121 0.36193 0.29186 0.0
H321 H 0.55542 0.34591 0.31599 0.0
H322 H 0.58196 0.34488 0.36819 0.0
H323 H 0.57704 0.39734 0.44113 0.0
H324 H 0.55052 0.39839 0.38891 0.0
H325 H 0.60138 0.38142 0.46512 0.0
H326 H 0.53376 0.40266 0.34560 0.0
H327 H 0.59755 0.34217 0.40901 0.0
C328 C 0.52126 0.38630 0.73724 0.0
C329 C 0.54550 0.39470 0.74023 0.0
C330 C 0.55658 0.38877 0.70881 0.0
C331 C 0.58081 0.39715 0.71186 0.0
C332 C 0.59189 0.39118 0.68050 0.0
C333 C 0.57873 0.37685 0.64607 0.0
C334 C 0.55451 0.36851 0.64299 0.0
C335 C 0.54343 0.37447 0.67436 0.0
C336 C 0.58981 0.37085 0.61474 0.0
C337 C 0.61403 0.37916 0.61786 0.0
H338 H 0.55524 0.40531 0.76571 0.0
H339 H 0.59055 0.40776 0.73734 0.0
H340 H 0.60983 0.39737 0.68276 0.0
H341 H 0.54478 0.35792 0.61748 0.0
H342 H 0.52549 0.36829 0.67208 0.0
H343 H 0.58007 0.36025 0.58924 0.0
H344 H 0.50968 0.37234 0.71737 0.0
H345 H 0.62310 0.39265 0.64027 0.0
C346 C 0.85438 0.52597 0.30923 0.0
C347 C 0.84279 0.50302 0.32621 0.0
C348 C 0.82017 0.49381 0.34263 0.0
C349 C 0.80861 0.47088 0.35967 0.0
C350 C 0.78601 0.46169 0.37619 0.0
C351 C 0.77498 0.47543 0.37564 0.0
C352 C 0.78653 0.49834 0.35852 0.0
C353 C 0.80913 0.50754 0.34202 0.0
C354 C 0.75241 0.46625 0.39221 0.0
C355 C 0.74087 0.44334 0.40937 0.0
H356 H 0.85095 0.49284 0.32662 0.0
H357 H 0.81677 0.46071 0.36007 0.0
H358 H 0.77745 0.44471 0.38881 0.0
H359 H 0.77836 0.50850 0.35807 0.0
H360 H 0.81768 0.52451 0.32936 0.0
H361 H 0.74423 0.47641 0.39177 0.0
H362 H 0.84950 0.53876 0.31442 0.0
H363 H 0.74838 0.43291 0.40254 0.0
C364 C 0.85811 0.52116 0.72230 0.0
C365 C 0.85034 0.51216 0.68161 0.0
C366 C 0.82690 0.49399 0.67416 0.0
C367 C 0.81916 0.48496 0.63347 0.0
C368 C 0.79574 0.46674 0.62602 0.0
C369 C 0.78005 0.45756 0.65925 0.0
C370 C 0.78778 0.46662 0.69993 0.0
C371 C 0.81121 0.48483 0.70739 0.0
C372 C 0.75663 0.43932 0.65180 0.0
C373 C 0.74892 0.43025 0.61113 0.0
H374 H 0.86195 0.51895 0.65700 0.0
H375 H 0.83078 0.49176 0.60887 0.0
H376 H 0.79001 0.46006 0.59590 0.0
H377 H 0.77615 0.45984 0.72452 0.0
H378 H 0.81693 0.49153 0.73750 0.0
H379 H 0.74501 0.43254 0.67640 0.0
H380 H 0.84914 0.51257 0.74895 0.0
H381 H 0.76025 0.44048 0.58780 0.0
C382 C 0.66404 0.19725 0.31165 0.0
C383 C 0.68121 0.22166 0.30977 0.0
C384 C 0.68085 0.23825 0.33816 0.0
C385 C 0.69800 0.26266 0.33621 0.0
C386 C 0.69762 0.27927 0.36454 0.0
C387 C 0.68010 0.27146 0.39483 0.0
C388 C 0.66297 0.24705 0.39683 0.0
C389 C 0.66334 0.23044 0.36849 0.0
C390 C 0.67969 0.28808 0.42311 0.0
C391 C 0.69680 0.31249 0.42107 0.0
H392 H 0.69419 0.22744 0.28734 0.0
H393 H 0.71098 0.26843 0.31380 0.0
H394 H 0.71032 0.29734 0.36308 0.0
H395 H 0.65001 0.24127 0.41928 0.0
H396 H 0.65066 0.21237 0.36997 0.0
H397 H 0.66673 0.28230 0.44556 0.0
H398 H 0.64833 0.19074 0.32756 0.0
H399 H 0.71116 0.31623 0.40267 0.0
H400 H 0.95725 0.07331 0.04697 0.0
H401 H 0.92592 0.03597 0.04451 0.0
H402 H 0.91995 0.06756 0.04624 0.0
H403 H 0.81305 0.01767 0.04222 0.0
H404 H 0.84439 0.05502 0.04469 0.0
H405 H 0.85036 0.02342 0.04296 0.0
H406 H 0.81325 0.01798 0.99233 0.0
H407 H 0.84458 0.05533 0.99480 0.0
H408 H 0.85055 0.02373 0.99307 0.0
H409 H 0.95744 0.07363 0.99708 0.0
H410 H 0.92611 0.03628 0.99462 0.0
H411 H 0.92014 0.06788 0.99635 0.0
C412 C 0.95365 0.06322 0.02141 0.0
C413 C 0.92992 0.04662 0.02020 0.0
C414 C 0.91624 0.05738 0.02066 0.0
C415 C 0.89217 0.04027 0.01943 0.0
C416 C 0.81685 0.02808 0.01790 0.0
C417 C 0.84058 0.04468 0.01911 0.0
C418 C 0.85426 0.03391 0.01865 0.0
C419 C 0.87833 0.05102 0.01988 0.0
H420 H 0.08300 0.11216 0.99697 0.0
H421 H 0.11802 0.11411 0.99990 0.0
H422 H 0.11710 0.14868 0.99826 0.0
H423 H 0.22135 0.22378 0.00341 0.0
H424 H 0.18633 0.22183 0.00010 0.0
H425 H 0.18726 0.18727 0.00212 0.0
H426 H 0.22091 0.22444 0.05331 0.0
H427 H 0.18589 0.22249 0.05081 0.0
H428 H 0.18681 0.18793 0.05201 0.0
H429 H 0.08255 0.11282 0.04686 0.0
H430 H 0.11757 0.11477 0.04935 0.0
H431 H 0.11665 0.14933 0.04815 0.0
C432 C 0.08806 0.10756 0.02246 0.0
C433 C 0.11229 0.11936 0.02384 0.0
C434 C 0.12226 0.14411 0.02376 0.0
C435 C 0.14689 0.15584 0.02518 0.0
C436 C 0.21585 0.22904 0.02781 0.0
C437 C 0.19162 0.21724 0.02643 0.0
C438 C 0.18165 0.19249 0.02651 0.0
C439 C 0.15701 0.18076 0.02510 0.0
H440 H 0.02212 0.96985 0.99448 0.0
H441 H 0.98929 0.93356 0.99374 0.0
H442 H 0.02484 0.93590 0.99344 0.0
H443 H 0.99653 0.83065 0.99059 0.0
H444 H 0.02936 0.86694 0.99133 0.0
H445 H 0.99382 0.86460 0.99163 0.0
H446 H 0.99690 0.83096 0.04051 0.0
H447 H 0.02974 0.86725 0.04125 0.0
H448 H 0.99419 0.86490 0.04155 0.0
H449 H 0.02250 0.97016 0.04440 0.0
H450 H 0.98966 0.93387 0.04366 0.0
H451 H 0.02521 0.93621 0.04336 0.0
C452 C 0.01212 0.96432 0.01938 0.0
C453 C 0.99990 0.93963 0.01877 0.0
C454 C 0.01477 0.93027 0.01833 0.0
C455 C 0.00205 0.90516 0.01771 0.0
C456 C 0.00691 0.83649 0.01561 0.0
C457 C 0.01915 0.86118 0.01622 0.0
C458 C 0.00426 0.87054 0.01666 0.0
C459 C 0.01697 0.89565 0.01728 0.0
