data_{}
_symmetry_space_group_name_H-M    P1
_symmetry_Int_Tables_number       1
_symmetry_cell_setting            triclinic
loop_
_symmetry_equiv_pos_as_xyz
'x, y, z'
_cell_length_a     47.088
_cell_length_b     50.602
_cell_length_c     34.923
_cell_angle_alpha  97.103
_cell_angle_beta   90.008
_cell_angle_gamma  88.231
loop_
_atom_site_label
_atom_site_type_symbol
_atom_site_fract_x
_atom_site_fract_y
_atom_site_fract_z
_atom_type_partial_charge
C0 C 0.04437 0.02739 0.06136 0.0
C1 C 0.03940 0.00010 0.06026 0.0
C2 C 0.01204 0.99116 0.06269 0.0
H3 H 0.94565 0.01264 0.07173 0.0
C4 C 0.97914 0.95556 0.06510 0.0
C5 C 0.00599 0.96373 0.06245 0.0
H6 H 0.02458 0.06396 0.06461 0.0
C7 C 0.95607 0.97405 0.06815 0.0
C8 C 0.96104 0.00010 0.06925 0.0
C9 C 0.98840 0.01028 0.06681 0.0
C10 C 0.99445 0.03771 0.06705 0.0
C11 C 0.02130 0.04589 0.06441 0.0
H12 H 0.97586 0.93748 0.06490 0.0
H13 H 0.05479 0.98881 0.05778 0.0
O14 O 0.52132 0.53010 0.65686 0.0
O15 O 0.51917 0.53232 0.59422 0.0
Mg16 Mg 0.49787 0.50600 0.46286 0.0
Mg17 Mg 0.50256 0.49545 0.66661 0.0
O18 O 0.53770 0.49239 0.47635 0.0
Mg19 Mg 0.50022 0.50072 0.56473 0.0
O20 O 0.51513 0.54096 0.45034 0.0
O21 O 0.53785 0.48945 0.53885 0.0
O22 O 0.51492 0.56874 0.50515 0.0
O23 O 0.54153 0.48068 0.68271 0.0
H24 H 0.47257 0.52793 0.51578 0.0
O25 O 0.56231 0.46028 0.62921 0.0
O26 O 0.47912 0.47135 0.47261 0.0
O27 O 0.48127 0.46913 0.53525 0.0
H28 H 0.50063 0.46373 0.61196 0.0
O29 O 0.46274 0.50906 0.65312 0.0
O30 O 0.46258 0.51200 0.59062 0.0
O31 O 0.48531 0.46049 0.67913 0.0
O32 O 0.48552 0.43271 0.62432 0.0
O33 O 0.45890 0.52077 0.44676 0.0
O34 O 0.43813 0.54116 0.50026 0.0
O35 O 0.48972 0.52474 0.52102 0.0
O36 O 0.51072 0.47671 0.60845 0.0
H37 H 0.52787 0.47351 0.61369 0.0
H38 H 0.49981 0.53772 0.51751 0.0
C39 C 0.52543 0.54123 0.62773 0.0
C40 C 0.54912 0.48683 0.50646 0.0
C41 C 0.51851 0.56341 0.46931 0.0
C42 C 0.56092 0.46641 0.66520 0.0
C43 C 0.47500 0.46022 0.50173 0.0
C44 C 0.45132 0.51461 0.62301 0.0
C45 C 0.48193 0.43804 0.66016 0.0
C46 C 0.43951 0.53504 0.46427 0.0
C47 C 0.43941 0.26334 0.34197 0.0
C48 C 0.45472 0.24133 0.31439 0.0
C49 C 0.43909 0.22810 0.27867 0.0
C50 C 0.45408 0.20600 0.25086 0.0
C51 C 0.43822 0.19283 0.21525 0.0
C52 C 0.40743 0.20177 0.20759 0.0
C53 C 0.39250 0.22391 0.23530 0.0
C54 C 0.40833 0.23705 0.27086 0.0
C55 C 0.41081 0.17103 0.14552 0.0
C56 C 0.39164 0.16382 0.11052 0.0
C57 C 0.37163 0.14034 0.10988 0.0
C58 C 0.34869 0.13650 0.07852 0.0
C59 C 0.34802 0.15396 0.04537 0.0
C60 C 0.36990 0.17583 0.04419 0.0
C61 C 0.39171 0.18079 0.07685 0.0
C62 C 0.41205 0.20408 0.07744 0.0
C63 C 0.37302 0.12223 0.14229 0.0
C64 C 0.32483 0.15012 0.01427 0.0
C65 C 0.32610 0.11546 0.08043 0.0
C66 C 0.27489 0.11196 0.09184 0.0
C67 C 0.28064 0.08185 0.08125 0.0
C68 C 0.25571 0.06274 0.07782 0.0
C69 C 0.22508 0.07378 0.08499 0.0
C70 C 0.21937 0.10390 0.09590 0.0
C71 C 0.24430 0.12301 0.09932 0.0
C72 C 0.20020 0.05462 0.08115 0.0
C73 C 0.20608 0.02455 0.07006 0.0
C74 C 0.36905 0.19379 0.01172 0.0
C75 C 0.38862 0.19621 0.94723 0.0
C76 C 0.37217 0.22308 0.94884 0.0
C77 C 0.37882 0.24233 0.91942 0.0
C78 C 0.40197 0.23466 0.88856 0.0
C79 C 0.41835 0.20774 0.88693 0.0
C80 C 0.41166 0.18849 0.91629 0.0
C81 C 0.40892 0.25391 0.85932 0.0
C82 C 0.43227 0.24614 0.82881 0.0
O83 O 0.39186 0.18923 0.17262 0.0
O84 O 0.38312 0.17794 0.97713 0.0
O85 O 0.29920 0.13073 0.09395 0.0
H86 H 0.41661 0.26975 0.33584 0.0
H87 H 0.47752 0.23485 0.32042 0.0
H88 H 0.47686 0.19938 0.25663 0.0
H89 H 0.44926 0.17650 0.19459 0.0
H90 H 0.36973 0.23056 0.22946 0.0
H91 H 0.39728 0.25341 0.29144 0.0
H92 H 0.41771 0.15252 0.15912 0.0
H93 H 0.43007 0.18204 0.13676 0.0
H94 H 0.40518 0.21723 0.05464 0.0
H95 H 0.43465 0.19600 0.07106 0.0
H96 H 0.41124 0.21629 0.10715 0.0
H97 H 0.38391 0.13302 0.16863 0.0
H98 H 0.38579 0.10320 0.13168 0.0
H99 H 0.35068 0.11686 0.15040 0.0
H100 H 0.32689 0.16570 0.99356 0.0
H101 H 0.30308 0.15250 0.02883 0.0
H102 H 0.32726 0.12931 0.99765 0.0
H103 H 0.32286 0.10416 0.05051 0.0
H104 H 0.33266 0.10103 0.10169 0.0
H105 H 0.30333 0.07372 0.07579 0.0
H106 H 0.25990 0.04043 0.06989 0.0
H107 H 0.19670 0.11205 0.10135 0.0
H108 H 0.24013 0.14534 0.10724 0.0
H109 H 0.17747 0.06268 0.08645 0.0
H110 H 0.22883 0.01655 0.06478 0.0
H111 H 0.34626 0.19965 0.00460 0.0
H112 H 0.38158 0.21243 0.02098 0.0
H113 H 0.35522 0.22878 0.97194 0.0
H114 H 0.36672 0.26227 0.92057 0.0
H115 H 0.43548 0.20212 0.86405 0.0
H116 H 0.42388 0.16864 0.91531 0.0
H117 H 0.39686 0.27387 0.86028 0.0
H118 H 0.44428 0.22616 0.82796 0.0
C119 C 0.77529 0.42702 0.86283 0.0
C120 C 0.75946 0.40669 0.88359 0.0
C121 C 0.77378 0.39470 0.91742 0.0
C122 C 0.75825 0.37426 0.93841 0.0
C123 C 0.77280 0.36233 0.97216 0.0
C124 C 0.80282 0.37083 0.98478 0.0
C125 C 0.81827 0.39131 0.96390 0.0
C126 C 0.80376 0.40322 0.93019 0.0
C127 C 0.79748 0.34308 0.03897 0.0
C128 C 0.81515 0.33702 0.07392 0.0
C129 C 0.83596 0.31283 0.07027 0.0
C130 C 0.85745 0.30987 0.10275 0.0
C131 C 0.85580 0.32909 0.14056 0.0
C132 C 0.83308 0.35179 0.14547 0.0
C133 C 0.81276 0.35578 0.11206 0.0
C134 C 0.79162 0.37979 0.11568 0.0
C135 C 0.83687 0.29301 0.03298 0.0
C136 C 0.87754 0.32610 0.17280 0.0
C137 C 0.88087 0.28794 0.09739 0.0
C138 C 0.93269 0.28237 0.08943 0.0
C139 C 0.92755 0.25275 0.09187 0.0
C140 C 0.95298 0.23296 0.09257 0.0
C141 C 0.98350 0.24284 0.09083 0.0
C142 C 0.98862 0.27246 0.08806 0.0
C143 C 0.96319 0.29224 0.08737 0.0
C144 C 0.00886 0.22303 0.09192 0.0
C145 C 0.00356 0.19347 0.09486 0.0
C146 C 0.83164 0.37148 0.18273 0.0
C147 C 0.80880 0.37770 0.24644 0.0
C148 C 0.82429 0.40420 0.25310 0.0
C149 C 0.81546 0.42524 0.28700 0.0
C150 C 0.79109 0.41972 0.31404 0.0
C151 C 0.77567 0.39317 0.30739 0.0
C152 C 0.78453 0.37214 0.27356 0.0
C153 C 0.78198 0.44077 0.34774 0.0
C154 C 0.75744 0.43514 0.37438 0.0
O155 O 0.81708 0.35950 0.01803 0.0
O156 O 0.81646 0.35765 0.21221 0.0
O157 O 0.90783 0.30186 0.09003 0.0
H158 H 0.79751 0.43314 0.87259 0.0
H159 H 0.73725 0.40052 0.87392 0.0
H160 H 0.73605 0.36797 0.92896 0.0
H161 H 0.76135 0.34724 0.98779 0.0
H162 H 0.84046 0.39764 0.97342 0.0
H163 H 0.81520 0.41835 0.91466 0.0
H164 H 0.79197 0.32396 0.01998 0.0
H165 H 0.77741 0.35516 0.04893 0.0
H166 H 0.79684 0.39397 0.14253 0.0
H167 H 0.76904 0.37262 0.11808 0.0
H168 H 0.79345 0.39058 0.08903 0.0
H169 H 0.82692 0.30288 0.00835 0.0
H170 H 0.82431 0.27475 0.03767 0.0
H171 H 0.85979 0.28656 0.02537 0.0
H172 H 0.87387 0.34288 0.19740 0.0
H173 H 0.89989 0.32715 0.16065 0.0
H174 H 0.87506 0.30605 0.18396 0.0
H175 H 0.88304 0.27796 0.12483 0.0
H176 H 0.87593 0.27254 0.07179 0.0
H177 H 0.90494 0.24549 0.09334 0.0
H178 H 0.94923 0.21102 0.09447 0.0
H179 H 0.01122 0.27974 0.08662 0.0
H180 H 0.96692 0.31421 0.08548 0.0
H181 H 0.03151 0.23022 0.09060 0.0
H182 H 0.98089 0.18634 0.09616 0.0
H183 H 0.85381 0.37707 0.19334 0.0
H184 H 0.81890 0.39014 0.17713 0.0
H185 H 0.84214 0.40830 0.23282 0.0
H186 H 0.82685 0.44491 0.29198 0.0
H187 H 0.75764 0.38915 0.32746 0.0
H188 H 0.77303 0.35254 0.26842 0.0
H189 H 0.79332 0.46047 0.35291 0.0
H190 H 0.74615 0.41541 0.36910 0.0
C191 C 0.22672 0.57579 0.26690 0.0
C192 C 0.20398 0.56236 0.24008 0.0
C193 C 0.19215 0.57652 0.20664 0.0
C194 C 0.16933 0.56338 0.17963 0.0
C195 C 0.15757 0.57775 0.14631 0.0
C196 C 0.16862 0.60522 0.14014 0.0
C197 C 0.19148 0.61829 0.16705 0.0
C198 C 0.20322 0.60395 0.20032 0.0
C199 C 0.13868 0.60208 0.08041 0.0
C200 C 0.13338 0.61897 0.04740 0.0
C201 C 0.10898 0.64001 0.05049 0.0
C202 C 0.10724 0.66027 0.02112 0.0
C203 C 0.12762 0.65746 0.98625 0.0
C204 C 0.15033 0.63474 0.98134 0.0
C205 C 0.15324 0.61550 0.01201 0.0
C206 C 0.17744 0.59417 0.00887 0.0
C207 C 0.08791 0.64217 0.08462 0.0
C208 C 0.12588 0.67796 0.95715 0.0
C209 C 0.08541 0.68359 0.02672 0.0
C210 C 0.08291 0.73235 0.04243 0.0
C211 C 0.05098 0.72951 0.03417 0.0
C212 C 0.03157 0.75457 0.03441 0.0
C213 C 0.04412 0.78241 0.04293 0.0
C214 C 0.07604 0.78523 0.05152 0.0
C215 C 0.09545 0.76017 0.05126 0.0
C216 C 0.02468 0.80740 0.04277 0.0
C217 C 0.99281 0.80441 0.03399 0.0
C218 C 0.17122 0.63209 0.94713 0.0
C219 C 0.17634 0.61035 0.88063 0.0
C220 C 0.20562 0.62306 0.88101 0.0
C221 C 0.22747 0.61342 0.84916 0.0
C222 C 0.21997 0.59104 0.81710 0.0
C223 C 0.19065 0.57839 0.81673 0.0
C224 C 0.16880 0.58806 0.84852 0.0
C225 C 0.24181 0.58113 0.78541 0.0
C226 C 0.23418 0.55859 0.75371 0.0
O227 O 0.15749 0.61928 0.10739 0.0
O228 O 0.15547 0.61883 0.91279 0.0
O229 O 0.10204 0.70785 0.04093 0.0
H230 H 0.23471 0.59613 0.26188 0.0
H231 H 0.19593 0.54202 0.24499 0.0
H232 H 0.16115 0.54306 0.18430 0.0
H233 H 0.14072 0.56806 0.12624 0.0
H234 H 0.19971 0.63859 0.16230 0.0
H235 H 0.22011 0.61363 0.22030 0.0
H236 H 0.11793 0.59819 0.09527 0.0
H237 H 0.15023 0.58253 0.06912 0.0
H238 H 0.19290 0.59810 0.98527 0.0
H239 H 0.16830 0.57356 0.00148 0.0
H240 H 0.18906 0.59516 0.03763 0.0
H241 H 0.09777 0.63222 0.10923 0.0
H242 H 0.06761 0.63165 0.07476 0.0
H243 H 0.08254 0.66399 0.09498 0.0
H244 H 0.14353 0.67342 0.93474 0.0
H245 H 0.12848 0.69876 0.97322 0.0
H246 H 0.10434 0.67697 0.94221 0.0
H247 H 0.07492 0.68628 0.99798 0.0
H248 H 0.06867 0.68000 0.04892 0.0
H249 H 0.04175 0.70888 0.02770 0.0
H250 H 0.00792 0.75252 0.02821 0.0
H251 H 0.08531 0.80585 0.05796 0.0
H252 H 0.11912 0.76220 0.05745 0.0
H253 H 0.03385 0.82808 0.04908 0.0
H254 H 0.98371 0.78372 0.02769 0.0
H255 H 0.17866 0.65242 0.94117 0.0
H256 H 0.19027 0.61896 0.95372 0.0
H257 H 0.21118 0.63946 0.90497 0.0
H258 H 0.24920 0.62275 0.84938 0.0
H259 H 0.18517 0.56182 0.79296 0.0
H260 H 0.14715 0.57862 0.84845 0.0
H261 H 0.26357 0.59041 0.78544 0.0
H262 H 0.21240 0.54935 0.75380 0.0
C263 C 0.55941 0.73953 0.78775 0.0
C264 C 0.58374 0.72655 0.80907 0.0
C265 C 0.59682 0.74203 0.84520 0.0
C266 C 0.62123 0.72935 0.86678 0.0
C267 C 0.63423 0.74504 0.90285 0.0
C268 C 0.62282 0.77336 0.91717 0.0
C269 C 0.59837 0.78598 0.89568 0.0
C270 C 0.58539 0.77032 0.85967 0.0
C271 C 0.65568 0.77210 0.97352 0.0
C272 C 0.66214 0.79053 0.01053 0.0
C273 C 0.68584 0.81075 0.01058 0.0
C274 C 0.68849 0.83251 0.04515 0.0
C275 C 0.66990 0.83204 0.08134 0.0
C276 C 0.64804 0.81016 0.08252 0.0
C277 C 0.64412 0.78941 0.04703 0.0
C278 C 0.62065 0.76888 0.04694 0.0
C279 C 0.70517 0.81057 0.97490 0.0
C280 C 0.67254 0.85403 0.11569 0.0
C281 C 0.70944 0.85500 0.04350 0.0
C282 C 0.70997 0.90324 0.04010 0.0
C283 C 0.74231 0.89972 0.04467 0.0
C284 C 0.76106 0.92429 0.04908 0.0
C285 C 0.74742 0.95232 0.04891 0.0
C286 C 0.71507 0.95580 0.04400 0.0
C287 C 0.69633 0.93123 0.03960 0.0
C288 C 0.76622 0.97685 0.05370 0.0
C289 C 0.79854 0.97320 0.05876 0.0
C290 C 0.62890 0.80985 0.11814 0.0
C291 C 0.62755 0.79135 0.17976 0.0
C292 C 0.59798 0.80510 0.18542 0.0
C293 C 0.57795 0.79766 0.21695 0.0
C294 C 0.58754 0.77643 0.24264 0.0
C295 C 0.61715 0.76275 0.23700 0.0
C296 C 0.63718 0.77021 0.20553 0.0
C297 C 0.56752 0.76871 0.27395 0.0
C298 C 0.57723 0.74730 0.29923 0.0
O299 O 0.63517 0.78874 0.95265 0.0
O300 O 0.64661 0.79763 0.14771 0.0
O301 O 0.69154 0.87928 0.03706 0.0
H302 H 0.55117 0.76052 0.79879 0.0
H303 H 0.59204 0.70557 0.79813 0.0
H304 H 0.62968 0.70840 0.85608 0.0
H305 H 0.65227 0.73570 0.91891 0.0
H306 H 0.58989 0.80692 0.90646 0.0
H307 H 0.56733 0.77966 0.84370 0.0
H308 H 0.67578 0.76678 0.95565 0.0
H309 H 0.64518 0.75335 0.98089 0.0
H310 H 0.60625 0.77450 0.07310 0.0
H311 H 0.63064 0.74819 0.04817 0.0
H312 H 0.60763 0.76888 0.01941 0.0
H313 H 0.69438 0.79970 0.94854 0.0
H314 H 0.72617 0.79979 0.98018 0.0
H315 H 0.70948 0.83186 0.96964 0.0
H316 H 0.65612 0.85113 0.13866 0.0
H317 H 0.66866 0.87428 0.10518 0.0
H318 H 0.69479 0.85305 0.12841 0.0
H319 H 0.72124 0.85874 0.07207 0.0
H320 H 0.72517 0.84975 0.01872 0.0
H321 H 0.75235 0.87895 0.04496 0.0
H322 H 0.78502 0.92174 0.05256 0.0
H323 H 0.70500 0.97656 0.04373 0.0
H324 H 0.67235 0.93376 0.03613 0.0
H325 H 0.75625 0.99766 0.05356 0.0
H326 H 0.80844 0.95237 0.05888 0.0
H327 H 0.62126 0.83085 0.13007 0.0
H328 H 0.60989 0.79694 0.10991 0.0
H329 H 0.59087 0.82063 0.16612 0.0
H330 H 0.55601 0.80776 0.22118 0.0
H331 H 0.62418 0.74703 0.25607 0.0
H332 H 0.65904 0.75999 0.20114 0.0
H333 H 0.54556 0.77878 0.27836 0.0
H334 H 0.59920 0.73728 0.29471 0.0
C335 C 0.09239 0.02535 0.06738 0.0
C336 C 0.10535 0.00756 0.03240 0.0
C337 C 0.13779 0.00257 0.03246 0.0
C338 C 0.15419 0.01608 0.06730 0.0
C339 C 0.14326 0.04518 0.06843 0.0
C340 C 0.11083 0.05006 0.06868 0.0
C341 C 0.10501 0.01183 0.10100 0.0
C342 C 0.13747 0.00713 0.10108 0.0
H343 H 0.09106 0.99879 0.00802 0.0
H344 H 0.14855 0.98938 0.00745 0.0
H345 H 0.15900 0.06191 0.06905 0.0
H346 H 0.10153 0.07121 0.06977 0.0
H347 H 0.09045 0.00582 0.12431 0.0
H348 H 0.14804 0.99742 0.12543 0.0
C349 C 0.99168 0.08650 0.07814 0.0
C350 C 0.98169 0.10421 0.04763 0.0
C351 C 0.99117 0.13330 0.05302 0.0
C352 C 0.00946 0.14197 0.08864 0.0
C353 C 0.99134 0.13290 0.12106 0.0
C354 C 0.98213 0.10376 0.11564 0.0
C355 C 0.02388 0.09106 0.07864 0.0
C356 C 0.03321 0.12018 0.08441 0.0
H357 H 0.96793 0.09562 0.02254 0.0
H358 H 0.98460 0.14728 0.03115 0.0
H359 H 0.98537 0.14757 0.14750 0.0
H360 H 0.96886 0.09588 0.13881 0.0
H361 H 0.03955 0.07330 0.07485 0.0
H362 H 0.05677 0.12477 0.08538 0.0
C363 C 0.00875 0.91495 0.05137 0.0
C364 C 0.98940 0.90628 0.08278 0.0
C365 C 0.98020 0.87710 0.07738 0.0
C366 C 0.99097 0.85948 0.04085 0.0
C367 C 0.98223 0.87682 0.00927 0.0
C368 C 0.99169 0.90590 0.01469 0.0
C369 C 0.03247 0.89315 0.04912 0.0
C370 C 0.02313 0.86403 0.04335 0.0
H371 H 0.98256 0.92121 0.10851 0.0
H372 H 0.96607 0.86950 0.09989 0.0
H373 H 0.96936 0.86797 0.98341 0.0
H374 H 0.98600 0.91961 0.99210 0.0
H375 H 0.05566 0.89893 0.05171 0.0
H376 H 0.03977 0.84705 0.04113 0.0
C377 C 0.90805 0.97611 0.06211 0.0
C378 C 0.89530 0.99528 0.09582 0.0
C379 C 0.86282 0.00010 0.09598 0.0
C380 C 0.84626 0.98537 0.06218 0.0
C381 C 0.86282 0.99303 0.02735 0.0
C382 C 0.89523 0.98804 0.02722 0.0
C383 C 0.88960 0.95161 0.06333 0.0
C384 C 0.85716 0.95645 0.06310 0.0
H385 H 0.90976 0.00520 0.11914 0.0
H386 H 0.85216 0.01386 0.12039 0.0
H387 H 0.85101 0.00194 0.00324 0.0
H388 H 0.90857 0.99315 0.00206 0.0
H389 H 0.90010 0.93110 0.06433 0.0
H390 H 0.84244 0.93903 0.06362 0.0
C391 C 0.47231 0.40504 0.68930 0.0
C392 C 0.46652 0.38035 0.70949 0.0
C393 C 0.46071 0.35565 0.72968 0.0
C394 C 0.45482 0.33099 0.74984 0.0
C395 C 0.44879 0.30631 0.76999 0.0
C396 C 0.44268 0.28167 0.79011 0.0
C397 C 0.60027 0.45743 0.70057 0.0
C398 C 0.62779 0.45380 0.72340 0.0
C399 C 0.65533 0.45016 0.74626 0.0
C400 C 0.68279 0.44652 0.76918 0.0
C401 C 0.71021 0.44288 0.79229 0.0
C402 C 0.73756 0.43924 0.81548 0.0
C403 C 0.58228 0.47824 0.49455 0.0
C404 C 0.61230 0.47321 0.47720 0.0
C405 C 0.64235 0.46817 0.45983 0.0
C406 C 0.67239 0.46313 0.44259 0.0
C407 C 0.70252 0.45808 0.42551 0.0
C408 C 0.73265 0.45304 0.40855 0.0
C409 C 0.40019 0.54397 0.42885 0.0
C410 C 0.37269 0.54750 0.40592 0.0
C411 C 0.34518 0.55103 0.38296 0.0
C412 C 0.31773 0.55463 0.36000 0.0
C413 C 0.29029 0.55835 0.33697 0.0
C414 C 0.26290 0.56213 0.31393 0.0
C415 C 0.41815 0.52322 0.63493 0.0
C416 C 0.38814 0.52826 0.65228 0.0
C417 C 0.35809 0.53331 0.66965 0.0
C418 C 0.32805 0.53835 0.68689 0.0
C419 C 0.29792 0.54339 0.70397 0.0
C420 C 0.26778 0.54842 0.72093 0.0
C421 C 0.52812 0.59642 0.44019 0.0
C422 C 0.53392 0.62112 0.42005 0.0
C423 C 0.53973 0.64583 0.39989 0.0
C424 C 0.54562 0.67050 0.37974 0.0
C425 C 0.55165 0.69516 0.35956 0.0
C426 C 0.55776 0.71978 0.33938 0.0
C427 C 0.46650 0.43051 0.48654 0.0
C428 C 0.46347 0.40226 0.46514 0.0
C429 C 0.46044 0.37399 0.44373 0.0
C430 C 0.45749 0.34574 0.42236 0.0
C431 C 0.45468 0.31742 0.40100 0.0
C432 C 0.45195 0.28912 0.37967 0.0
C433 C 0.53393 0.57094 0.64294 0.0
C434 C 0.53697 0.59918 0.66435 0.0
C435 C 0.54000 0.62745 0.68577 0.0
C436 C 0.54294 0.65570 0.70715 0.0
C437 C 0.54575 0.68401 0.72850 0.0
C438 C 0.54849 0.71232 0.74981 0.0
