data_{}
_symmetry_space_group_name_H-M    P1
_symmetry_Int_Tables_number       1
_symmetry_cell_setting            triclinic
loop_
_symmetry_equiv_pos_as_xyz
'x, y, z'
_cell_length_a     55.010
_cell_length_b     41.965
_cell_length_c     86.392
_cell_angle_alpha  90.308
_cell_angle_beta   96.823
_cell_angle_gamma  78.904
loop_
_atom_site_label
_atom_site_type_symbol
_atom_site_fract_x
_atom_site_fract_y
_atom_site_fract_z
_atom_type_partial_charge
O0 O 0.04532 0.06728 0.64513 0.0
O1 O 0.07179 0.06879 0.71827 0.0
O2 O 0.08504 0.93524 0.68702 0.0
H3 H 0.05404 0.07684 0.67360 0.0
H4 H 0.07015 0.01360 0.70891 0.0
H5 H 0.06693 0.98090 0.66548 0.0
H6 H 0.05252 0.04103 0.61970 0.0
H7 H 0.05361 0.00378 0.61726 0.0
H8 H 0.04935 0.12485 0.72168 0.0
H9 H 0.03368 0.14803 0.70839 0.0
H10 H 0.05749 0.92185 0.72269 0.0
H11 H 0.07801 0.90686 0.71223 0.0
H12 H 0.06215 0.99577 0.64289 0.0
H13 H 0.04124 0.10829 0.69145 0.0
H14 H 0.05312 0.96896 0.70998 0.0
C15 C 0.05902 0.03013 0.66653 0.0
C16 C 0.05781 0.05548 0.67728 0.0
C17 C 0.06207 0.04959 0.69293 0.0
C18 C 0.06730 0.01776 0.69822 0.0
C19 C 0.06847 0.99233 0.68841 0.0
C20 C 0.06512 0.99817 0.67232 0.0
C21 C 0.05415 0.03870 0.64936 0.0
C22 C 0.06149 0.01958 0.62315 0.0
C23 C 0.06122 0.07534 0.70446 0.0
C24 C 0.04901 0.13235 0.71103 0.0
C25 C 0.07274 0.95714 0.69335 0.0
C26 C 0.06131 0.91975 0.71201 0.0
N27 N 0.05954 0.01543 0.63934 0.0
N28 N 0.04932 0.10489 0.70063 0.0
N29 N 0.06109 0.95235 0.70562 0.0
O30 O 0.11553 0.97647 0.47467 0.0
O31 O 0.16819 0.95550 0.41331 0.0
O32 O 0.16883 0.08539 0.44679 0.0
H33 H 0.13453 0.96010 0.45032 0.0
H34 H 0.16308 0.01233 0.42173 0.0
H35 H 0.14360 0.05049 0.46183 0.0
H36 H 0.11269 0.00147 0.50079 0.0
H37 H 0.11279 0.03841 0.50345 0.0
H38 H 0.14831 0.91008 0.40353 0.0
H39 H 0.12850 0.89574 0.41152 0.0
H40 H 0.15632 0.10903 0.40519 0.0
H41 H 0.17173 0.11495 0.42101 0.0
H42 H 0.13054 0.03996 0.48175 0.0
H43 H 0.12921 0.93330 0.42973 0.0
H44 H 0.14740 0.06518 0.41586 0.0
C45 C 0.13654 0.00502 0.45848 0.0
C46 C 0.13948 0.97929 0.44796 0.0
C47 C 0.14942 0.98171 0.43443 0.0
C48 C 0.15634 0.01052 0.43099 0.0
C49 C 0.15374 0.03625 0.44062 0.0
C50 C 0.14448 0.03349 0.45483 0.0
C51 C 0.12545 0.00010 0.47327 0.0
C52 C 0.12246 0.01824 0.50015 0.0
C53 C 0.15299 0.95534 0.42328 0.0
C54 C 0.14397 0.90369 0.41347 0.0
C55 C 0.15962 0.06892 0.43723 0.0
C56 C 0.15589 0.11022 0.41637 0.0
N57 N 0.12675 0.02189 0.48431 0.0
N58 N 0.14032 0.93194 0.42341 0.0
N59 N 0.15327 0.07830 0.42229 0.0
C60 C 0.05468 0.59975 0.78672 0.0
C61 C 0.07371 0.55837 0.80507 0.0
C62 C 0.05384 0.65520 0.76864 0.0
C63 C 0.06251 0.37226 0.75777 0.0
C64 C 0.06542 0.44915 0.79021 0.0
C65 C 0.09239 0.51163 0.82331 0.0
C66 C 0.04495 0.52782 0.81749 0.0
C67 C 0.07026 0.50287 0.79631 0.0
C68 C 0.96937 0.56061 0.86988 0.0
C69 C 0.03025 0.55901 0.85398 0.0
C70 C 0.07396 0.64267 0.77813 0.0
C71 C 0.06380 0.39873 0.76933 0.0
C72 C 0.13689 0.50139 0.82834 0.0
C73 C 0.06525 0.45481 0.77565 0.0
C74 C 0.07471 0.61407 0.78744 0.0
C75 C 0.00465 0.53794 0.83380 0.0
C76 C 0.06873 0.69680 0.75499 0.0
C77 C 0.95175 0.55000 0.86803 0.0
C78 C 0.05926 0.34649 0.75945 0.0
C79 C 0.98900 0.55506 0.85829 0.0
C80 C 0.05168 0.68264 0.75846 0.0
C81 C 0.03330 0.64099 0.76880 0.0
C82 C 0.03359 0.61351 0.77745 0.0
C83 C 0.06326 0.42143 0.79509 0.0
C84 C 0.18033 0.49965 0.84683 0.0
C85 C 0.15943 0.49780 0.85236 0.0
C86 C 0.17955 0.49477 0.83141 0.0
C87 C 0.02676 0.54652 0.83961 0.0
H88 H 0.96954 0.53791 0.83981 0.0
C89 C 0.20584 0.49672 0.85440 0.0
C90 C 0.21158 0.50727 0.86690 0.0
H91 H 0.01378 0.57072 0.87351 0.0
H92 H 0.06196 0.37534 0.78812 0.0
H93 H 0.12297 0.50082 0.84789 0.0
H94 H 0.06393 0.43167 0.75380 0.0
H95 H 0.15746 0.49642 0.81062 0.0
O96 O 0.05391 0.57132 0.79492 0.0
O97 O 0.11456 0.50603 0.81732 0.0
H98 H 0.08888 0.55611 0.80008 0.0
H99 H 0.07516 0.57251 0.81390 0.0
H100 H 0.08966 0.49156 0.82773 0.0
H101 H 0.09292 0.52718 0.83165 0.0
H102 H 0.04170 0.50642 0.81953 0.0
H103 H 0.03135 0.53932 0.81019 0.0
H104 H 0.08581 0.50100 0.79181 0.0
O105 O 0.04697 0.54457 0.83101 0.0
H106 H 0.97212 0.57296 0.87863 0.0
H107 H 0.05668 0.51192 0.78843 0.0
H108 H 0.04531 0.56505 0.85752 0.0
O109 O 0.06732 0.47244 0.80129 0.0
H110 H 0.06583 0.47553 0.77206 0.0
H111 H 0.08908 0.60545 0.79405 0.0
H112 H 0.08784 0.65242 0.77883 0.0
H113 H 0.00259 0.52926 0.82389 0.0
H114 H 0.08498 0.68965 0.75971 0.0
H115 H 0.94877 0.53634 0.85982 0.0
H116 H 0.07145 0.33489 0.77033 0.0
H117 H 0.03566 0.69126 0.75378 0.0
H118 H 0.01856 0.65040 0.76273 0.0
H119 H 0.01939 0.60435 0.77696 0.0
H120 H 0.06190 0.41798 0.80556 0.0
H121 H 0.15979 0.49469 0.86305 0.0
H122 H 0.19460 0.48930 0.82724 0.0
H123 H 0.21864 0.48579 0.84911 0.0
H124 H 0.19825 0.51605 0.87230 0.0
C125 C 0.98496 0.54284 0.84347 0.0
C126 C 0.01119 0.56280 0.86350 0.0
H127 H 0.06468 0.37761 0.74768 0.0
C128 C 0.06289 0.39568 0.78425 0.0
C129 C 0.07043 0.52492 0.81065 0.0
C130 C 0.13758 0.50011 0.84337 0.0
C131 C 0.06427 0.42770 0.76439 0.0
C132 C 0.15765 0.49738 0.82137 0.0
C133 C 0.15190 0.58054 0.34003 0.0
C134 C 0.13288 0.54842 0.32165 0.0
C135 C 0.15273 0.63589 0.35816 0.0
C136 C 0.14416 0.35749 0.36875 0.0
C137 C 0.14122 0.43527 0.33640 0.0
C138 C 0.11420 0.51076 0.30337 0.0
C139 C 0.16165 0.50316 0.30918 0.0
C140 C 0.13636 0.49133 0.33035 0.0
C141 C 0.23719 0.49697 0.25679 0.0
C142 C 0.17632 0.52631 0.27272 0.0
C143 C 0.13261 0.63333 0.34867 0.0
C144 C 0.14286 0.38441 0.35722 0.0
C145 C 0.06970 0.52285 0.29834 0.0
C146 C 0.14138 0.44112 0.35096 0.0
C147 C 0.13187 0.60494 0.33933 0.0
C148 C 0.20193 0.49271 0.29287 0.0
C149 C 0.13783 0.68524 0.37187 0.0
C150 C 0.25482 0.47752 0.25862 0.0
C151 C 0.14742 0.33004 0.36705 0.0
C152 C 0.21757 0.50151 0.26839 0.0
C153 C 0.15489 0.66242 0.36837 0.0
C154 C 0.17328 0.61133 0.35799 0.0
C155 C 0.17299 0.58384 0.34931 0.0
C156 C 0.14338 0.40638 0.33148 0.0
C157 C 0.02625 0.54267 0.27988 0.0
C158 C 0.04715 0.53019 0.27433 0.0
C159 C 0.02704 0.53767 0.29529 0.0
C160 C 0.17982 0.51232 0.28708 0.0
H161 H 0.23704 0.47489 0.28683 0.0
C162 C 0.00010 0.55246 0.27231 0.0
C163 C 0.99499 0.56567 0.25982 0.0
H164 H 0.19278 0.52939 0.25320 0.0
H165 H 0.14470 0.35976 0.33840 0.0
H166 H 0.08362 0.51493 0.27879 0.0
H167 H 0.14273 0.41769 0.37279 0.0
H168 H 0.04915 0.52855 0.31608 0.0
O169 O 0.15268 0.55158 0.33180 0.0
O170 O 0.09204 0.51644 0.30936 0.0
H171 H 0.11771 0.55389 0.32664 0.0
H172 H 0.13142 0.56314 0.31283 0.0
H173 H 0.11694 0.48924 0.29893 0.0
H174 H 0.11366 0.52644 0.29504 0.0
H175 H 0.16490 0.48009 0.30712 0.0
H176 H 0.17524 0.50795 0.31649 0.0
H177 H 0.12081 0.49737 0.33486 0.0
O178 O 0.15962 0.52070 0.29568 0.0
H179 H 0.23443 0.51056 0.24806 0.0
H180 H 0.14993 0.49368 0.33824 0.0
H181 H 0.16125 0.53988 0.26919 0.0
O182 O 0.13930 0.45933 0.32534 0.0
H183 H 0.14080 0.46218 0.35457 0.0
H184 H 0.11750 0.60344 0.33272 0.0
H185 H 0.11873 0.65006 0.34799 0.0
H186 H 0.20400 0.48316 0.30276 0.0
H187 H 0.12159 0.68618 0.36715 0.0
H188 H 0.25781 0.46251 0.26682 0.0
H189 H 0.13523 0.32439 0.35616 0.0
H190 H 0.17091 0.66306 0.37306 0.0
H191 H 0.18802 0.61342 0.36406 0.0
H192 H 0.18720 0.56755 0.34978 0.0
H193 H 0.14473 0.40206 0.32101 0.0
H194 H 0.04679 0.52707 0.26364 0.0
H195 H 0.01200 0.53984 0.29946 0.0
H196 H 0.98794 0.54806 0.27760 0.0
H197 H 0.00831 0.56764 0.25442 0.0
C198 C 0.22162 0.48752 0.28319 0.0
C199 C 0.19537 0.52033 0.26320 0.0
H200 H 0.14200 0.36411 0.37885 0.0
C201 C 0.14376 0.38064 0.34230 0.0
C202 C 0.13616 0.51322 0.31604 0.0
C203 C 0.06901 0.52166 0.28332 0.0
C204 C 0.14238 0.41370 0.36220 0.0
C205 C 0.04895 0.52942 0.30532 0.0
O206 O 0.77672 0.59585 0.07738 0.0
O207 O 0.70745 0.64108 0.01467 0.0
O208 O 0.65632 0.64033 0.07433 0.0
H209 H 0.75521 0.61230 0.05075 0.0
H210 H 0.68297 0.63198 0.03577 0.0
H211 H 0.70475 0.61822 0.08129 0.0
H212 H 0.78510 0.59895 0.10628 0.0
H213 H 0.76485 0.59624 0.11727 0.0
H214 H 0.73833 0.61794 0.99706 0.0
H215 H 0.76521 0.59792 0.00224 0.0
H216 H 0.61429 0.60808 0.04454 0.0
H217 H 0.61505 0.63187 0.05852 0.0
H218 H 0.73541 0.61025 0.09726 0.0
H219 H 0.75728 0.60132 0.02691 0.0
H220 H 0.65503 0.60534 0.04428 0.0
C221 C 0.73363 0.61304 0.06826 0.0
C222 C 0.73871 0.61559 0.05280 0.0
C223 C 0.72014 0.62279 0.04077 0.0
C224 C 0.69574 0.62714 0.04396 0.0
C225 C 0.68972 0.62469 0.05862 0.0
C226 C 0.70868 0.61859 0.07112 0.0
C227 C 0.75529 0.60509 0.08097 0.0
C228 C 0.76873 0.60899 0.10888 0.0
C229 C 0.72472 0.62595 0.02455 0.0
C230 C 0.75306 0.61674 0.00459 0.0
C231 C 0.66363 0.62739 0.06286 0.0
C232 C 0.62320 0.61133 0.05462 0.0
N233 N 0.75074 0.60834 0.09556 0.0
N234 N 0.74637 0.61286 0.02018 0.0
N235 N 0.64907 0.61344 0.05251 0.0
O236 O 0.44386 0.38673 0.04968 0.0
O237 O 0.48885 0.44506 0.11173 0.0
O238 O 0.53562 0.46445 0.05195 0.0
H239 H 0.45687 0.40653 0.07608 0.0
H240 H 0.51533 0.44566 0.09069 0.0
H241 H 0.50052 0.42971 0.04535 0.0
H242 H 0.43416 0.38926 0.02075 0.0
H243 H 0.45400 0.39373 0.00975 0.0
H244 H 0.47095 0.41284 0.12970 0.0
H245 H 0.45495 0.38645 0.12481 0.0
H246 H 0.58977 0.44501 0.08208 0.0
H247 H 0.57805 0.46795 0.06780 0.0
H248 H 0.47535 0.41419 0.02954 0.0
H249 H 0.46034 0.39389 0.10007 0.0
H250 H 0.55318 0.43005 0.08245 0.0
C251 C 0.47627 0.41512 0.05851 0.0
C252 C 0.47067 0.41476 0.07396 0.0
C253 C 0.48488 0.42619 0.08587 0.0
C254 C 0.50551 0.43790 0.08257 0.0
C255 C 0.51196 0.43857 0.06793 0.0
C256 C 0.49688 0.42808 0.05553 0.0
C257 C 0.45952 0.40210 0.04593 0.0
C258 C 0.44478 0.40376 0.01799 0.0
C259 C 0.47948 0.42651 0.10207 0.0
C260 C 0.45768 0.40780 0.12221 0.0
C261 C 0.53488 0.44934 0.06361 0.0
C262 C 0.57984 0.44609 0.07197 0.0
N263 N 0.46202 0.40762 0.03129 0.0
N264 N 0.46537 0.40742 0.10664 0.0
N265 N 0.55490 0.44002 0.07410 0.0
C266 C 0.90104 0.60160 0.89677 0.0
C267 C 0.89389 0.57340 0.90542 0.0
C268 C 0.90380 0.53804 0.90106 0.0
C269 C 0.92083 0.53089 0.88805 0.0
C270 C 0.92797 0.55909 0.87939 0.0
C271 C 0.91807 0.59444 0.88375 0.0
C272 C 0.87680 0.58056 0.91840 0.0
C273 C 0.85967 0.58769 0.93138 0.0
C274 C 0.84251 0.59481 0.94433 0.0
C275 C 0.82532 0.60191 0.95727 0.0
C276 C 0.80810 0.60901 0.97019 0.0
C277 C 0.80060 0.58078 0.97861 0.0
C278 C 0.78329 0.58787 0.99148 0.0
C279 C 0.77350 0.62318 0.99595 0.0
C280 C 0.78103 0.65141 0.98754 0.0
C281 C 0.79833 0.64432 0.97466 0.0
H282 H 0.89372 0.62777 0.90000 0.0
H283 H 0.89852 0.51717 0.90747 0.0
H284 H 0.92817 0.50472 0.88482 0.0
H285 H 0.92336 0.61531 0.87735 0.0
H286 H 0.80784 0.55463 0.97530 0.0
H287 H 0.77773 0.56698 0.99771 0.0
H288 H 0.77379 0.67755 0.99085 0.0
H289 H 0.80390 0.66522 0.96843 0.0
C290 C 0.93933 0.53957 0.22319 0.0
C291 C 0.93171 0.57369 0.21558 0.0
C292 C 0.94491 0.60120 0.22179 0.0
C293 C 0.96572 0.59460 0.23562 0.0
C294 C 0.97333 0.56049 0.24324 0.0
C295 C 0.96013 0.53297 0.23702 0.0
C296 C 0.91085 0.58031 0.20178 0.0
C297 C 0.88996 0.58697 0.18799 0.0
C298 C 0.86905 0.59367 0.17422 0.0
C299 C 0.84811 0.60039 0.16047 0.0
C300 C 0.82715 0.60714 0.14673 0.0
C301 C 0.81924 0.64144 0.13934 0.0
C302 C 0.79821 0.64822 0.12564 0.0
C303 C 0.78510 0.62071 0.11933 0.0
C304 C 0.79303 0.58640 0.12671 0.0
C305 C 0.81405 0.57962 0.14041 0.0
H306 H 0.92957 0.51920 0.21859 0.0
H307 H 0.93928 0.62645 0.21615 0.0
H308 H 0.97549 0.61496 0.24022 0.0
H309 H 0.96578 0.50772 0.24266 0.0
H310 H 0.82895 0.66181 0.14402 0.0
H311 H 0.79235 0.67362 0.12018 0.0
H312 H 0.78333 0.56603 0.12203 0.0
H313 H 0.81992 0.55422 0.14588 0.0
C314 C 0.26576 0.44613 0.90207 0.0
C315 C 0.27490 0.47413 0.91115 0.0
C316 C 0.26323 0.50960 0.90642 0.0
C317 C 0.24245 0.51708 0.89261 0.0
C318 C 0.23332 0.48908 0.88353 0.0
C319 C 0.24498 0.45361 0.88826 0.0
C320 C 0.29573 0.46665 0.92493 0.0
C321 C 0.31659 0.45920 0.93870 0.0
C322 C 0.33748 0.45177 0.95246 0.0
C323 C 0.35840 0.44436 0.96619 0.0
C324 C 0.37935 0.43695 0.97992 0.0
C325 C 0.38877 0.46500 0.98878 0.0
C326 C 0.40979 0.45760 0.00246 0.0
C327 C 0.42136 0.42216 0.00729 0.0
C328 C 0.41192 0.39411 0.99844 0.0
C329 C 0.39091 0.40151 0.98476 0.0
H330 H 0.27439 0.41987 0.90558 0.0
H331 H 0.26998 0.53033 0.91315 0.0
H332 H 0.23381 0.54334 0.88911 0.0
H333 H 0.23822 0.43288 0.88154 0.0
H334 H 0.38021 0.49124 0.98520 0.0
H335 H 0.41678 0.47837 0.00901 0.0
H336 H 0.42048 0.36787 0.00202 0.0
H337 H 0.38392 0.38074 0.97820 0.0
C338 C 0.30384 0.43123 0.22849 0.0
C339 C 0.31323 0.45980 0.22164 0.0
C340 C 0.30531 0.49436 0.22771 0.0
C341 C 0.28798 0.50036 0.24061 0.0
C342 C 0.27858 0.47181 0.24745 0.0
C343 C 0.28651 0.43724 0.24139 0.0
C344 C 0.33049 0.45381 0.20871 0.0
C345 C 0.34773 0.44785 0.19575 0.0
C346 C 0.36493 0.44192 0.18278 0.0
C347 C 0.38209 0.43602 0.16979 0.0
C348 C 0.39924 0.43013 0.15679 0.0
C349 C 0.40820 0.45884 0.14976 0.0
C350 C 0.42525 0.45298 0.13671 0.0
C351 C 0.43335 0.41841 0.13069 0.0
C352 C 0.42441 0.38970 0.13774 0.0
C353 C 0.40735 0.39556 0.15078 0.0
H354 H 0.30971 0.40564 0.22400 0.0
H355 H 0.31227 0.51550 0.22265 0.0
H356 H 0.28212 0.52595 0.24511 0.0
H357 H 0.27956 0.41609 0.24645 0.0
H358 H 0.40219 0.48443 0.15421 0.0
H359 H 0.43187 0.47424 0.13150 0.0
H360 H 0.43042 0.36410 0.13329 0.0
H361 H 0.40073 0.37430 0.15600 0.0
C362 C 0.59821 0.47920 0.05992 0.0
C363 C 0.62117 0.49418 0.04020 0.0
C364 C 0.62063 0.52430 0.04620 0.0
C365 C 0.60897 0.53364 0.05976 0.0
C366 C 0.60963 0.47126 0.04709 0.0
C367 C 0.60800 0.56468 0.06676 0.0
C368 C 0.58504 0.54970 0.08647 0.0
C369 C 0.58558 0.51958 0.08047 0.0
C370 C 0.59724 0.51024 0.06691 0.0
C371 C 0.59658 0.57262 0.07958 0.0
H372 H 0.62922 0.48847 0.03143 0.0
H373 H 0.57699 0.55541 0.09524 0.0
H374 H 0.62804 0.53904 0.04134 0.0
H375 H 0.57817 0.50484 0.08534 0.0
H376 H 0.60992 0.45085 0.04277 0.0
H377 H 0.59629 0.59303 0.08390 0.0
H378 H 0.08224 0.15172 0.71166 0.0
H379 H 0.08794 0.31357 0.74823 0.0
H380 H 0.05332 0.30969 0.72716 0.0
H381 H 0.08586 0.26016 0.73604 0.0
H382 H 0.05091 0.25494 0.71451 0.0
H383 H 0.08374 0.20585 0.72365 0.0
H384 H 0.04958 0.19977 0.70240 0.0
H385 H 0.06336 0.14287 0.72604 0.0
H386 H 0.06906 0.30472 0.76261 0.0
H387 H 0.03444 0.30083 0.74153 0.0
H388 H 0.06698 0.25131 0.75042 0.0
H389 H 0.03203 0.24608 0.72889 0.0
H390 H 0.06486 0.19700 0.73803 0.0
H391 H 0.03070 0.19092 0.71678 0.0
C392 C 0.06302 0.15319 0.71433 0.0
C393 C 0.06876 0.31612 0.75114 0.0
C394 C 0.05366 0.29874 0.73873 0.0
C395 C 0.06665 0.26225 0.73885 0.0
C396 C 0.05125 0.24412 0.72611 0.0
C397 C 0.06452 0.20766 0.72639 0.0
C398 C 0.04992 0.18912 0.71404 0.0
H399 H 0.03586 0.90193 0.71877 0.0
H400 H 0.04856 0.73710 0.75608 0.0
H401 H 0.05852 0.74072 0.72870 0.0
H402 H 0.04443 0.79150 0.74361 0.0
H403 H 0.05436 0.79647 0.71572 0.0
H404 H 0.04023 0.84680 0.73093 0.0
H405 H 0.04985 0.85265 0.70347 0.0
H406 H 0.06772 0.90261 0.72596 0.0
H407 H 0.08042 0.73779 0.76328 0.0
H408 H 0.09038 0.74140 0.73590 0.0
H409 H 0.07629 0.79218 0.75081 0.0
H410 H 0.08622 0.79715 0.72291 0.0
H411 H 0.07209 0.84748 0.73813 0.0
H412 H 0.08171 0.85334 0.71067 0.0
C413 C 0.05523 0.89617 0.71605 0.0
C414 C 0.06801 0.73025 0.75362 0.0
C415 C 0.07096 0.74780 0.73848 0.0
C416 C 0.06384 0.78510 0.74104 0.0
C417 C 0.06681 0.80342 0.72552 0.0
C418 C 0.05962 0.84069 0.72829 0.0
C419 C 0.06232 0.85943 0.71331 0.0
H420 H 0.15485 0.88617 0.40104 0.0
H421 H 0.14193 0.72715 0.36356 0.0
H422 H 0.16334 0.72670 0.39080 0.0
H423 H 0.14632 0.77961 0.37608 0.0
H424 H 0.16800 0.78043 0.40385 0.0
H425 H 0.15078 0.83294 0.38882 0.0
H426 H 0.17203 0.83471 0.41615 0.0
H427 H 0.12551 0.88825 0.40849 0.0
H428 H 0.11260 0.72922 0.37101 0.0
H429 H 0.13400 0.72877 0.39826 0.0
H430 H 0.11698 0.78168 0.38354 0.0
H431 H 0.13866 0.78250 0.41130 0.0
H432 H 0.12144 0.83501 0.39627 0.0
H433 H 0.14269 0.83678 0.42361 0.0
C434 C 0.14582 0.88018 0.41103 0.0
C435 C 0.13282 0.72010 0.37330 0.0
C436 C 0.14307 0.73538 0.38840 0.0
C437 C 0.13725 0.77300 0.38594 0.0
C438 C 0.14772 0.78898 0.40141 0.0
C439 C 0.14173 0.82661 0.39874 0.0
C440 C 0.15174 0.84310 0.41369 0.0
H441 H 0.17374 0.14072 0.42113 0.0
H442 H 0.16808 0.30489 0.38483 0.0
H443 H 0.14939 0.26338 0.36915 0.0
H444 H 0.16984 0.25049 0.39671 0.0
H445 H 0.15104 0.20733 0.38120 0.0
H446 H 0.17162 0.19518 0.40879 0.0
H447 H 0.15331 0.15204 0.39386 0.0
H448 H 0.14440 0.15530 0.42831 0.0
H449 H 0.13874 0.31946 0.39201 0.0
H450 H 0.12004 0.27795 0.37633 0.0
H451 H 0.14049 0.26506 0.40390 0.0
H452 H 0.12170 0.22190 0.38838 0.0
H453 H 0.14228 0.20975 0.41598 0.0
H454 H 0.12396 0.16661 0.40105 0.0
C455 C 0.15341 0.14311 0.41860 0.0
C456 C 0.14771 0.30837 0.38206 0.0
C457 C 0.14041 0.27495 0.37901 0.0
C458 C 0.14948 0.25350 0.39404 0.0
C459 C 0.14206 0.21903 0.39102 0.0
C460 C 0.15128 0.19790 0.40619 0.0
C461 C 0.14431 0.16390 0.40365 0.0
C462 C 0.11442 0.01687 0.59433 0.0
C463 C 0.09514 0.01774 0.57980 0.0
C464 C 0.06734 0.02033 0.58165 0.0
C465 C 0.05880 0.02207 0.59803 0.0
C466 C 0.12883 0.01084 0.51416 0.0
C467 C 0.10588 0.01861 0.61071 0.0
C468 C 0.10364 0.01600 0.56341 0.0
C469 C 0.11208 0.01428 0.54701 0.0
C470 C 0.12047 0.01256 0.53059 0.0
C471 C 0.07807 0.02121 0.61256 0.0
H472 H 0.13501 0.01495 0.59296 0.0
H473 H 0.05306 0.02097 0.57090 0.0
H474 H 0.03821 0.02401 0.59939 0.0
H475 H 0.12015 0.01797 0.62147 0.0
