data_{}
_symmetry_space_group_name_H-M    P1
_symmetry_Int_Tables_number       1
_symmetry_cell_setting            triclinic
loop_
_symmetry_equiv_pos_as_xyz
'x, y, z'
_cell_length_a     69.233
_cell_length_b     32.138
_cell_length_c     68.124
_cell_angle_alpha  89.681
_cell_angle_beta   90.016
_cell_angle_gamma  87.942
loop_
_atom_site_label
_atom_site_type_symbol
_atom_site_fract_x
_atom_site_fract_y
_atom_site_fract_z
_atom_type_partial_charge
N0 N 0.99866 0.04344 0.61622 0.0
N1 N 0.99556 0.08229 0.58660 0.0
N2 N 0.00229 0.97516 0.61475 0.0
C3 C 0.99566 0.00914 0.54542 0.0
C4 C 0.99990 0.97811 0.57536 0.0
N5 N 0.99779 0.97327 0.55660 0.0
N6 N 0.99512 0.04707 0.55668 0.0
N7 N 0.00185 0.93977 0.58468 0.0
N8 N 0.99858 0.00972 0.58604 0.0
C9 C 0.99990 0.01221 0.60434 0.0
C10 C 0.99769 0.04736 0.57613 0.0
C11 C 0.99658 0.08251 0.60776 0.0
C12 C 0.00329 0.94121 0.60396 0.0
N13 N 0.99745 0.96886 0.39347 0.0
N14 N 0.99455 0.93048 0.42310 0.0
N15 N 0.00109 0.03659 0.39492 0.0
C16 C 0.99492 0.00358 0.46428 0.0
C17 C 0.99835 0.03408 0.43432 0.0
N18 N 0.99697 0.03913 0.45309 0.0
N19 N 0.99431 0.96575 0.45303 0.0
N20 N 0.00010 0.07203 0.42500 0.0
N21 N 0.99756 0.00258 0.42366 0.0
C22 C 0.99858 0.99990 0.40535 0.0
C23 C 0.99675 0.96508 0.43356 0.0
C24 C 0.99542 0.93011 0.40194 0.0
C25 C 0.00215 0.07037 0.40571 0.0
H26 H 0.99124 0.53109 0.67214 0.0
H27 H 0.99128 0.59244 0.65485 0.0
H28 H 0.00143 0.54599 0.74159 0.0
H29 H 0.97424 0.56588 0.75879 0.0
H30 H 0.02164 0.48629 0.67221 0.0
H31 H 0.02162 0.42525 0.65500 0.0
H32 H 0.01133 0.47018 0.74165 0.0
H33 H 0.03849 0.44998 0.75895 0.0
H34 H 0.98898 0.43659 0.71339 0.0
H35 H 0.98890 0.37545 0.69626 0.0
H36 H 0.04399 0.51988 0.70047 0.0
H37 H 0.07121 0.49978 0.71769 0.0
H38 H 0.96884 0.49701 0.70039 0.0
H39 H 0.94159 0.51681 0.71752 0.0
H40 H 0.02383 0.58008 0.71334 0.0
H41 H 0.02393 0.64151 0.69613 0.0
C42 C 0.99806 0.55327 0.67694 0.0
C43 C 0.99801 0.59013 0.66663 0.0
C44 C 0.98933 0.53962 0.73677 0.0
C45 C 0.97301 0.55173 0.74703 0.0
C46 C 0.01481 0.46403 0.67702 0.0
C47 C 0.01487 0.42734 0.66676 0.0
C48 C 0.02344 0.47663 0.73685 0.0
C49 C 0.03974 0.46434 0.74717 0.0
C50 C 0.99544 0.43454 0.70145 0.0
C51 C 0.99548 0.39783 0.69122 0.0
C52 C 0.04282 0.50611 0.71242 0.0
C53 C 0.05914 0.49386 0.72271 0.0
C54 C 0.96999 0.51057 0.71233 0.0
C55 C 0.95366 0.52264 0.72256 0.0
C56 C 0.01739 0.58233 0.70138 0.0
C57 C 0.01736 0.61922 0.69110 0.0
C58 C 0.00804 0.54882 0.69421 0.0
C59 C 0.00779 0.62372 0.67345 0.0
C60 C 0.98796 0.51827 0.71953 0.0
C61 C 0.95487 0.54318 0.74018 0.0
C62 C 0.00480 0.46817 0.69426 0.0
C63 C 0.00508 0.39364 0.67360 0.0
C64 C 0.02483 0.49829 0.71959 0.0
C65 C 0.05790 0.47301 0.74036 0.0
C66 C 0.00641 0.50839 0.70690 0.0
H67 H 0.98812 0.43106 0.29628 0.0
H68 H 0.98801 0.36962 0.31350 0.0
H69 H 0.04311 0.51412 0.30924 0.0
H70 H 0.07036 0.49432 0.29211 0.0
H71 H 0.96796 0.49125 0.30916 0.0
H72 H 0.94073 0.51136 0.29194 0.0
H73 H 0.02297 0.57455 0.29623 0.0
H74 H 0.02304 0.63568 0.31337 0.0
H75 H 0.00010 0.54096 0.26798 0.0
H76 H 0.97345 0.56115 0.25068 0.0
H77 H 0.99031 0.52484 0.33741 0.0
H78 H 0.99032 0.58588 0.35463 0.0
H79 H 0.01052 0.46515 0.26804 0.0
H80 H 0.03771 0.44525 0.25084 0.0
H81 H 0.02071 0.48004 0.33748 0.0
H82 H 0.02066 0.41869 0.35477 0.0
C83 C 0.99456 0.42880 0.30824 0.0
C84 C 0.99458 0.39191 0.31853 0.0
C85 C 0.04195 0.50057 0.29730 0.0
C86 C 0.05829 0.48849 0.28707 0.0
C87 C 0.96913 0.50502 0.29720 0.0
C88 C 0.95281 0.51728 0.28691 0.0
C89 C 0.01651 0.57659 0.30817 0.0
C90 C 0.01646 0.61331 0.31841 0.0
C91 C 0.98850 0.53451 0.27277 0.0
C92 C 0.97221 0.54679 0.26246 0.0
C93 C 0.99713 0.54711 0.33260 0.0
C94 C 0.99707 0.58379 0.34286 0.0
C95 C 0.02262 0.47151 0.27286 0.0
C96 C 0.03893 0.45941 0.26260 0.0
C97 C 0.01389 0.45786 0.33268 0.0
C98 C 0.01394 0.42099 0.34299 0.0
C99 C 0.00390 0.46231 0.31542 0.0
C100 C 0.00416 0.38741 0.33617 0.0
C101 C 0.02398 0.49287 0.29010 0.0
C102 C 0.05708 0.46795 0.26945 0.0
C103 C 0.98711 0.51285 0.29004 0.0
C104 C 0.95405 0.53813 0.26927 0.0
C105 C 0.00715 0.54296 0.31537 0.0
C106 C 0.00686 0.61749 0.33603 0.0
C107 C 0.00554 0.50275 0.30273 0.0
C108 C 0.79914 0.73491 0.13466 0.0
C109 C 0.79827 0.69495 0.12235 0.0
C110 C 0.78460 0.69373 0.10456 0.0
C111 C 0.78352 0.65395 0.09214 0.0
C112 C 0.76975 0.65301 0.07439 0.0
C113 C 0.75708 0.69180 0.06914 0.0
C114 C 0.75821 0.73157 0.08151 0.0
C115 C 0.77196 0.73251 0.09923 0.0
C116 C 0.74657 0.65262 0.03946 0.0
C117 C 0.73365 0.66182 0.02156 0.0
C118 C 0.71211 0.65190 0.02230 0.0
C119 C 0.69855 0.66851 0.00595 0.0
C120 C 0.70686 0.69042 0.98781 0.0
C121 C 0.72874 0.69673 0.98628 0.0
C122 C 0.74215 0.68247 0.00320 0.0
C123 C 0.76379 0.69188 0.00246 0.0
C124 C 0.70393 0.62855 0.04012 0.0
C125 C 0.69316 0.70726 0.97158 0.0
C126 C 0.67664 0.66383 0.00777 0.0
C127 C 0.64671 0.70605 0.01261 0.0
C128 C 0.63654 0.66488 0.00931 0.0
C129 C 0.61434 0.66470 0.00822 0.0
C130 C 0.60235 0.70569 0.01043 0.0
C131 C 0.61253 0.74683 0.01389 0.0
C132 C 0.63473 0.74701 0.01499 0.0
C133 C 0.58016 0.70540 0.00913 0.0
C134 C 0.57010 0.66416 0.00557 0.0
C135 C 0.73715 0.71940 0.96845 0.0
C136 C 0.75053 0.70526 0.93574 0.0
C137 C 0.75358 0.75238 0.93440 0.0
C138 C 0.76661 0.76972 0.91823 0.0
C139 C 0.77659 0.73984 0.90348 0.0
C140 C 0.77348 0.69274 0.90482 0.0
C141 C 0.76043 0.67542 0.92096 0.0
C142 C 0.78978 0.75693 0.88741 0.0
C143 C 0.79982 0.72674 0.87286 0.0
O144 O 0.74373 0.69134 0.05169 0.0
O145 O 0.73856 0.68802 0.95212 0.0
O146 O 0.66844 0.70642 0.01304 0.0
H147 H 0.78967 0.76340 0.13055 0.0
H148 H 0.80771 0.66639 0.12642 0.0
H149 H 0.79289 0.62524 0.09607 0.0
H150 H 0.76894 0.62364 0.06515 0.0
H151 H 0.74886 0.76030 0.07754 0.0
H152 H 0.77278 0.76191 0.10843 0.0
H153 H 0.74168 0.62401 0.04781 0.0
H154 H 0.76231 0.64841 0.03472 0.0
H155 H 0.76650 0.71413 0.98975 0.0
H156 H 0.77269 0.66172 0.00010 0.0
H157 H 0.76813 0.70688 0.01685 0.0
H158 H 0.71413 0.63128 0.05316 0.0
H159 H 0.70261 0.59429 0.03625 0.0
H160 H 0.68906 0.64234 0.04410 0.0
H161 H 0.70181 0.72429 0.96000 0.0
H162 H 0.68195 0.72972 0.97836 0.0
H163 H 0.68551 0.68032 0.96450 0.0
H164 H 0.67049 0.65358 0.99312 0.0
H165 H 0.67322 0.64034 0.01976 0.0
H166 H 0.64545 0.63459 0.00760 0.0
H167 H 0.60677 0.63425 0.00573 0.0
H168 H 0.60364 0.77715 0.01560 0.0
H169 H 0.64232 0.77746 0.01747 0.0
H170 H 0.57120 0.73565 0.01077 0.0
H171 H 0.57909 0.63397 0.00395 0.0
H172 H 0.72747 0.74722 0.96387 0.0
H173 H 0.75220 0.73023 0.97226 0.0
H174 H 0.74630 0.77434 0.94545 0.0
H175 H 0.76894 0.80460 0.91721 0.0
H176 H 0.78089 0.67070 0.89388 0.0
H177 H 0.75820 0.64053 0.92206 0.0
H178 H 0.79215 0.79179 0.88630 0.0
H179 H 0.79742 0.69190 0.87403 0.0
C180 C 0.21255 0.27941 0.87496 0.0
C181 C 0.21953 0.24150 0.88732 0.0
C182 C 0.23281 0.24773 0.90511 0.0
C183 C 0.23996 0.21010 0.91758 0.0
C184 C 0.25329 0.21666 0.93532 0.0
C185 C 0.25945 0.26079 0.94052 0.0
C186 C 0.25225 0.29838 0.92810 0.0
C187 C 0.23895 0.29184 0.91038 0.0
C188 C 0.27555 0.22875 0.97024 0.0
C189 C 0.28651 0.24452 0.98813 0.0
C190 C 0.30862 0.24721 0.98739 0.0
C191 C 0.31905 0.27045 0.00372 0.0
C192 C 0.30777 0.28638 0.02184 0.0
C193 C 0.28589 0.28003 0.02336 0.0
C194 C 0.27525 0.25914 0.00646 0.0
C195 C 0.25312 0.25590 0.00721 0.0
C196 C 0.32000 0.22983 0.96960 0.0
C197 C 0.31831 0.30992 0.03804 0.0
C198 C 0.34071 0.27837 0.00190 0.0
C199 C 0.36283 0.33571 0.99699 0.0
C200 C 0.37887 0.30204 0.00010 0.0
C201 C 0.40012 0.31437 0.00142 0.0
C202 C 0.40528 0.36035 0.99990 0.0
C203 C 0.38923 0.39399 0.99564 0.0
C204 C 0.36798 0.38165 0.99456 0.0
C205 C 0.42653 0.37258 0.00010 0.0
C206 C 0.44248 0.33878 0.00405 0.0
C207 C 0.27440 0.29664 0.04116 0.0
C208 C 0.26384 0.27499 0.07390 0.0
C209 C 0.25369 0.31828 0.07518 0.0
C210 C 0.23859 0.32721 0.09134 0.0
C211 C 0.23366 0.29277 0.10613 0.0
C212 C 0.24387 0.24953 0.10485 0.0
C213 C 0.25897 0.24063 0.08872 0.0
C214 C 0.21845 0.30137 0.12218 0.0
C215 C 0.21352 0.26659 0.13678 0.0
O216 O 0.27230 0.26758 0.95797 0.0
O217 O 0.27790 0.26556 0.05753 0.0
O218 O 0.34200 0.32379 0.99657 0.0
H219 H 0.21723 0.31191 0.87903 0.0
H220 H 0.21489 0.20895 0.88329 0.0
H221 H 0.23540 0.17745 0.91368 0.0
H222 H 0.25858 0.18889 0.94460 0.0
H223 H 0.25678 0.33105 0.93203 0.0
H224 H 0.23363 0.31964 0.90115 0.0
H225 H 0.28460 0.20432 0.96193 0.0
H226 H 0.26116 0.21576 0.97500 0.0
H227 H 0.24713 0.27541 0.01989 0.0
H228 H 0.24925 0.22202 0.00944 0.0
H229 H 0.24664 0.26804 0.99280 0.0
H230 H 0.30981 0.22691 0.95656 0.0
H231 H 0.32653 0.19776 0.97351 0.0
H232 H 0.33209 0.25147 0.96560 0.0
H233 H 0.30744 0.32111 0.04960 0.0
H234 H 0.32556 0.33783 0.03123 0.0
H235 H 0.32976 0.28836 0.04515 0.0
H236 H 0.34818 0.27179 0.01656 0.0
H237 H 0.34757 0.25806 0.98993 0.0
H238 H 0.37501 0.26803 0.00209 0.0
H239 H 0.41202 0.28950 0.00395 0.0
H240 H 0.39307 0.42801 0.99389 0.0
H241 H 0.35605 0.40651 0.99204 0.0
H242 H 0.43045 0.40657 0.99877 0.0
H243 H 0.43852 0.30482 0.00572 0.0
H244 H 0.27939 0.32860 0.04571 0.0
H245 H 0.25835 0.29856 0.03735 0.0
H246 H 0.25725 0.34358 0.06411 0.0
H247 H 0.23102 0.35921 0.09231 0.0
H248 H 0.24018 0.22409 0.11582 0.0
H249 H 0.26645 0.20856 0.08767 0.0
H250 H 0.21085 0.33333 0.12325 0.0
H251 H 0.22115 0.23467 0.13565 0.0
C252 C 0.90094 0.61161 0.78459 0.0
C253 C 0.91620 0.58099 0.79353 0.0
C254 C 0.93156 0.55969 0.78025 0.0
C255 C 0.93167 0.56902 0.75806 0.0
C256 C 0.91642 0.59964 0.74913 0.0
C257 C 0.90107 0.62092 0.76240 0.0
C258 C 0.88553 0.63292 0.79779 0.0
C259 C 0.87006 0.65437 0.81086 0.0
C260 C 0.85453 0.67593 0.82383 0.0
C261 C 0.85402 0.66699 0.84606 0.0
C262 C 0.83843 0.68856 0.85896 0.0
C263 C 0.82335 0.71907 0.84963 0.0
C264 C 0.82386 0.72800 0.82741 0.0
C265 C 0.83945 0.70642 0.81452 0.0
H266 H 0.91610 0.57407 0.80996 0.0
H267 H 0.94284 0.53701 0.78686 0.0
H268 H 0.91650 0.60657 0.73271 0.0
H269 H 0.88977 0.64359 0.75579 0.0
H270 H 0.86518 0.64441 0.85295 0.0
H271 H 0.83806 0.68201 0.87541 0.0
H272 H 0.81271 0.75057 0.82051 0.0
H273 H 0.83985 0.71305 0.79807 0.0
C274 C 0.90036 0.60790 0.22466 0.0
C275 C 0.92197 0.60999 0.21954 0.0
C276 C 0.93726 0.58824 0.23287 0.0
C277 C 0.93093 0.56438 0.25131 0.0
C278 C 0.90932 0.56228 0.25642 0.0
C279 C 0.89405 0.58403 0.24310 0.0
C280 C 0.88503 0.62967 0.21141 0.0
C281 C 0.86959 0.65134 0.19825 0.0
C282 C 0.85406 0.67296 0.18518 0.0
C283 C 0.85999 0.69721 0.16671 0.0
C284 C 0.84440 0.71887 0.15371 0.0
C285 C 0.82289 0.71625 0.15918 0.0
C286 C 0.81696 0.69199 0.17765 0.0
C287 C 0.83255 0.67036 0.19064 0.0
H288 H 0.92666 0.62768 0.20589 0.0
H289 H 0.95325 0.58980 0.22909 0.0
H290 H 0.90463 0.54461 0.27006 0.0
H291 H 0.87805 0.58249 0.24688 0.0
H292 H 0.87592 0.69915 0.16267 0.0
H293 H 0.84878 0.73678 0.14002 0.0
H294 H 0.80104 0.69005 0.18169 0.0
H295 H 0.82817 0.65236 0.20430 0.0
C296 C 0.11157 0.40279 0.78482 0.0
C297 C 0.08994 0.40007 0.78975 0.0
C298 C 0.07466 0.42203 0.77648 0.0
C299 C 0.08101 0.44667 0.75828 0.0
C300 C 0.10264 0.44935 0.75335 0.0
C301 C 0.11791 0.42741 0.76662 0.0
C302 C 0.12690 0.38098 0.79805 0.0
C303 C 0.14234 0.35928 0.81121 0.0
C304 C 0.15787 0.33770 0.82429 0.0
C305 C 0.15192 0.31304 0.84263 0.0
C306 C 0.16752 0.29160 0.85570 0.0
C307 C 0.18905 0.29480 0.85042 0.0
C308 C 0.19499 0.31946 0.83208 0.0
C309 C 0.17940 0.34090 0.81902 0.0
H310 H 0.08524 0.38185 0.80323 0.0
H311 H 0.05865 0.42004 0.78013 0.0
H312 H 0.10734 0.46756 0.73988 0.0
H313 H 0.13392 0.42941 0.76297 0.0
H314 H 0.13599 0.31068 0.84654 0.0
H315 H 0.16312 0.27330 0.86927 0.0
H316 H 0.21092 0.32183 0.82816 0.0
H317 H 0.18379 0.35912 0.80543 0.0
C318 C 0.11165 0.39918 0.22592 0.0
C319 C 0.11725 0.41846 0.24568 0.0
C320 C 0.10163 0.43991 0.25859 0.0
C321 C 0.08041 0.44205 0.25175 0.0
C322 C 0.07482 0.42275 0.23201 0.0
C323 C 0.09043 0.40132 0.21910 0.0
C324 C 0.12721 0.37779 0.21294 0.0
C325 C 0.14268 0.35634 0.19985 0.0
C326 C 0.15806 0.33487 0.18667 0.0
C327 C 0.17939 0.33248 0.19311 0.0
C328 C 0.19473 0.31105 0.17985 0.0
C329 C 0.18872 0.29200 0.16016 0.0
C330 C 0.16738 0.29439 0.15374 0.0
C331 C 0.15206 0.31583 0.16699 0.0
H332 H 0.13296 0.41690 0.25074 0.0
H333 H 0.10578 0.45421 0.27321 0.0
H334 H 0.05911 0.42431 0.22695 0.0
H335 H 0.08629 0.38704 0.20448 0.0
H336 H 0.18384 0.34659 0.20768 0.0
H337 H 0.21052 0.30923 0.18461 0.0
H338 H 0.16293 0.28029 0.13917 0.0
H339 H 0.13626 0.31756 0.16225 0.0
C340 C 0.47563 0.39916 0.00582 0.0
C341 C 0.47555 0.44195 0.01589 0.0
C342 C 0.49082 0.47362 0.01032 0.0
C343 C 0.49075 0.51637 0.02042 0.0
C344 C 0.50605 0.54802 0.01488 0.0
C345 C 0.52141 0.53691 0.99990 0.0
C346 C 0.52145 0.49419 0.98911 0.0
C347 C 0.50616 0.46254 0.99465 0.0
C348 C 0.53672 0.56853 0.99373 0.0
C349 C 0.53669 0.61122 0.00388 0.0
H350 H 0.46418 0.45018 0.02747 0.0
H351 H 0.47937 0.52460 0.03199 0.0
H352 H 0.50600 0.57966 0.02236 0.0
H353 H 0.53280 0.48599 0.97751 0.0
H354 H 0.50619 0.43091 0.98715 0.0
H355 H 0.54808 0.56032 0.98214 0.0
H356 H 0.48842 0.38526 0.99725 0.0
H357 H 0.52301 0.61964 0.01250 0.0
H358 H 0.00638 0.09632 0.63482 0.0
H359 H 0.98846 0.15272 0.61726 0.0
H360 H 0.00509 0.16877 0.64855 0.0
H361 H 0.98409 0.37178 0.65799 0.0
H362 H 0.00201 0.31539 0.67555 0.0
H363 H 0.98538 0.29933 0.64426 0.0
H364 H 0.00510 0.38323 0.64485 0.0
H365 H 0.02302 0.32684 0.66240 0.0
H366 H 0.00639 0.31079 0.63112 0.0
H367 H 0.02740 0.10778 0.62167 0.0
H368 H 0.00947 0.16417 0.60411 0.0
H369 H 0.02610 0.18023 0.63540 0.0
C370 C 0.01175 0.10791 0.62094 0.0
C371 C 0.00422 0.15222 0.61810 0.0
C372 C 0.01042 0.18054 0.63465 0.0
C373 C 0.00264 0.22546 0.63152 0.0
C374 C 0.99990 0.37165 0.65872 0.0
C375 C 0.00726 0.32734 0.66156 0.0
C376 C 0.00106 0.29902 0.64501 0.0
C377 C 0.00884 0.25410 0.64814 0.0
H378 H 0.99259 0.91799 0.62962 0.0
H379 H 0.02294 0.87578 0.62783 0.0
H380 H 0.99443 0.84602 0.64425 0.0
H381 H 0.02930 0.65854 0.67172 0.0
H382 H 0.99895 0.70076 0.67351 0.0
H383 H 0.02746 0.73051 0.65708 0.0
H384 H 0.02190 0.63786 0.64921 0.0
H385 H 0.99155 0.68007 0.65101 0.0
H386 H 0.02006 0.70983 0.63458 0.0
H387 H 0.98519 0.89730 0.60712 0.0
H388 H 0.01554 0.85509 0.60532 0.0
H389 H 0.98703 0.82533 0.62175 0.0
C390 C 0.99765 0.90594 0.61563 0.0
C391 C 0.01028 0.86741 0.61933 0.0
C392 C 0.99990 0.83382 0.63027 0.0
C393 C 0.01261 0.79489 0.63391 0.0
C394 C 0.01684 0.64991 0.66321 0.0
C395 C 0.00421 0.68844 0.65950 0.0
C396 C 0.01494 0.72203 0.64856 0.0
C397 C 0.00188 0.76096 0.64492 0.0
H398 H 0.98973 0.88165 0.41050 0.0
H399 H 0.02088 0.85299 0.39820 0.0
H400 H 0.99167 0.81055 0.39532 0.0
H401 H 0.02757 0.63875 0.35228 0.0
H402 H 0.99643 0.66741 0.36458 0.0
H403 H 0.02563 0.70985 0.36746 0.0
H404 H 0.02264 0.66100 0.32911 0.0
H405 H 0.99149 0.68967 0.34141 0.0
H406 H 0.02070 0.73210 0.34429 0.0
H407 H 0.98480 0.90391 0.38733 0.0
H408 H 0.01595 0.87525 0.37503 0.0
H409 H 0.98674 0.83281 0.37215 0.0
C410 C 0.99625 0.89497 0.39755 0.0
C411 C 0.00923 0.86210 0.38807 0.0
C412 C 0.99826 0.82375 0.38232 0.0
C413 C 0.01167 0.79067 0.37271 0.0
C414 C 0.01613 0.64768 0.34207 0.0
C415 C 0.00314 0.68055 0.35154 0.0
C416 C 0.01412 0.71890 0.35729 0.0
C417 C 0.00010 0.75199 0.36690 0.0
H418 H 0.98819 0.12276 0.40986 0.0
H419 H 0.99632 0.12834 0.37477 0.0
H420 H 0.98823 0.19295 0.39343 0.0
H421 H 0.99666 0.33921 0.32447 0.0
H422 H 0.98853 0.33363 0.35957 0.0
H423 H 0.99662 0.26902 0.34090 0.0
H424 H 0.02117 0.34361 0.33058 0.0
H425 H 0.01304 0.33802 0.36567 0.0
H426 H 0.02113 0.27342 0.34700 0.0
H427 H 0.01270 0.12715 0.41597 0.0
H428 H 0.02083 0.13273 0.38087 0.0
H429 H 0.01274 0.19734 0.39954 0.0
C430 C 0.00286 0.11603 0.40494 0.0
C431 C 0.00611 0.13944 0.38602 0.0
C432 C 0.00292 0.18629 0.38842 0.0
C433 C 0.00628 0.20959 0.36905 0.0
C434 C 0.00650 0.35034 0.33550 0.0
C435 C 0.00325 0.32693 0.35442 0.0
C436 C 0.00645 0.28008 0.35201 0.0
C437 C 0.00308 0.25677 0.37139 0.0
C438 C 0.01195 0.01217 0.48643 0.0
C439 C 0.00842 0.01567 0.52226 0.0
H440 H 0.01605 0.04121 0.48762 0.0
H441 H 0.02372 0.99371 0.48638 0.0
N442 N 0.99990 0.00164 0.50358 0.0
H443 H 0.98711 0.00763 0.50344 0.0
H444 H 0.02238 0.00799 0.52239 0.0
H445 H 0.00702 0.04640 0.52307 0.0
H446 H 0.99567 0.97576 0.50248 0.0
