data_{}
_symmetry_space_group_name_H-M    P1
_symmetry_Int_Tables_number       1
_symmetry_cell_setting            triclinic
loop_
_symmetry_equiv_pos_as_xyz
'x, y, z'
_cell_length_a     80.854
_cell_length_b     80.839
_cell_length_c     44.132
_cell_angle_alpha  90.631
_cell_angle_beta   90.571
_cell_angle_gamma  91.237
loop_
_atom_site_label
_atom_site_type_symbol
_atom_site_fract_x
_atom_site_fract_y
_atom_site_fract_z
_atom_type_partial_charge
H0 H 0.01881 0.51738 0.10257 0.0
H1 H 0.99170 0.52557 0.10232 0.0
C2 C 0.99675 0.52353 0.02946 0.0
C3 C 0.99709 0.52389 0.08401 0.0
C4 C 0.98858 0.52622 0.05685 0.0
C5 C 0.98746 0.52366 0.00010 0.0
C6 C 0.99672 0.52364 0.97150 0.0
C7 C 0.98841 0.52640 0.94416 0.0
C8 C 0.02180 0.51758 0.94425 0.0
C9 C 0.01354 0.51958 0.97166 0.0
C10 C 0.02284 0.51833 0.00010 0.0
C11 C 0.01355 0.51924 0.02964 0.0
C12 C 0.01344 0.52026 0.91721 0.0
C13 C 0.99697 0.52472 0.91713 0.0
H14 H 0.99159 0.52661 0.89879 0.0
H15 H 0.01893 0.51905 0.89892 0.0
O16 O 0.97233 0.52278 0.99990 0.0
O17 O 0.03781 0.51745 0.00110 0.0
C18 C 0.02181 0.51688 0.05715 0.0
C19 C 0.01340 0.51911 0.08422 0.0
H20 H 0.50419 0.01209 0.10238 0.0
H21 H 0.51241 0.03955 0.10299 0.0
C22 C 0.51032 0.03428 0.02997 0.0
C23 C 0.51071 0.03406 0.08451 0.0
C24 C 0.51304 0.04262 0.05762 0.0
C25 C 0.51044 0.04354 0.00126 0.0
C26 C 0.51040 0.03423 0.97201 0.0
C27 C 0.51315 0.04260 0.94493 0.0
C28 C 0.50429 0.00884 0.94396 0.0
C29 C 0.50632 0.01723 0.97163 0.0
C30 C 0.50508 0.00793 0.00010 0.0
C31 C 0.50602 0.01730 0.02961 0.0
C32 C 0.50696 0.01727 0.91719 0.0
C33 C 0.51144 0.03393 0.91763 0.0
H34 H 0.51333 0.03936 0.89945 0.0
H35 H 0.50573 0.01170 0.89872 0.0
O36 O 0.50958 0.05863 0.00117 0.0
O37 O 0.50418 0.99291 0.00010 0.0
C38 C 0.50367 0.00899 0.05687 0.0
C39 C 0.50592 0.01754 0.08420 0.0
H40 H 0.51902 0.46802 0.54527 0.0
H41 H 0.52034 0.46751 0.45558 0.0
H42 H 0.51096 0.49479 0.54346 0.0
H43 H 0.51464 0.49553 0.45747 0.0
H44 H 0.56335 0.53749 0.45637 0.0
H45 H 0.56436 0.53654 0.54607 0.0
H46 H 0.53547 0.53318 0.45795 0.0
H47 H 0.53635 0.52959 0.54396 0.0
H48 H 0.47586 0.50936 0.54072 0.0
H49 H 0.44835 0.50217 0.54127 0.0
H50 H 0.44404 0.52241 0.45932 0.0
H51 H 0.47170 0.52887 0.46229 0.0
H52 H 0.49703 0.53339 0.43671 0.0
H53 H 0.50709 0.55829 0.46028 0.0
H54 H 0.50182 0.58597 0.45953 0.0
H55 H 0.48148 0.58114 0.54132 0.0
H56 H 0.48748 0.55364 0.53856 0.0
H57 H 0.49425 0.52906 0.56434 0.0
C58 C 0.51969 0.46440 0.50048 0.0
C59 C 0.51748 0.47305 0.52664 0.0
C60 C 0.51858 0.47278 0.47406 0.0
C61 C 0.51292 0.48934 0.52521 0.0
C62 C 0.51471 0.48965 0.47547 0.0
C63 C 0.56693 0.53846 0.50119 0.0
C64 C 0.55809 0.53671 0.47496 0.0
C65 C 0.55880 0.53585 0.52755 0.0
C66 C 0.54128 0.53377 0.47624 0.0
C67 C 0.54175 0.53206 0.52600 0.0
C68 C 0.46938 0.51197 0.52399 0.0
C69 C 0.45283 0.50752 0.52461 0.0
C70 C 0.44319 0.51116 0.50001 0.0
C71 C 0.45026 0.51947 0.47620 0.0
C72 C 0.46690 0.52325 0.47839 0.0
C73 C 0.50192 0.56297 0.47694 0.0
C74 C 0.49887 0.57967 0.47620 0.0
C75 C 0.49139 0.58673 0.50069 0.0
C76 C 0.48685 0.57684 0.52451 0.0
C77 C 0.49055 0.56034 0.52245 0.0
S78 S 0.50439 0.52508 0.44389 0.0
S79 S 0.50498 0.52605 0.55728 0.0
N80 N 0.51116 0.49767 0.50076 0.0
N81 N 0.53292 0.53178 0.50064 0.0
N82 N 0.47663 0.51958 0.50154 0.0
N83 N 0.49810 0.55322 0.49941 0.0
Mn84 Mn 0.50482 0.52549 0.50059 0.0
C85 C 0.20530 0.45246 0.53033 0.0
C86 C 0.21503 0.45261 0.50529 0.0
C87 C 0.23290 0.45228 0.50435 0.0
C88 C 0.24857 0.45255 0.50388 0.0
C89 C 0.26540 0.45227 0.50449 0.0
C90 C 0.27476 0.45566 0.52995 0.0
C91 C 0.29239 0.45622 0.52766 0.0
C92 C 0.29874 0.45400 0.50027 0.0
C93 C 0.28945 0.45090 0.47638 0.0
C94 C 0.27259 0.45027 0.47894 0.0
C95 C 0.20723 0.45318 0.47596 0.0
C96 C 0.18926 0.45344 0.47281 0.0
C97 C 0.18133 0.45412 0.44484 0.0
C98 C 0.17409 0.45474 0.42174 0.0
C99 C 0.16400 0.45364 0.39493 0.0
C100 C 0.17356 0.45677 0.36897 0.0
C101 C 0.16428 0.45616 0.33917 0.0
C102 C 0.14589 0.45245 0.34165 0.0
C103 C 0.13818 0.45034 0.36963 0.0
C104 C 0.14763 0.45015 0.39544 0.0
C105 C 0.18048 0.45287 0.49990 0.0
C106 C 0.18865 0.45231 0.52961 0.0
C107 C 0.17947 0.45252 0.55520 0.0
C108 C 0.17127 0.45243 0.57777 0.0
C109 C 0.16182 0.45269 0.60628 0.0
C110 C 0.14586 0.44943 0.60649 0.0
C111 C 0.13665 0.45076 0.63262 0.0
C112 C 0.14535 0.45283 0.66013 0.0
C113 C 0.16221 0.45546 0.65863 0.0
C114 C 0.17062 0.45456 0.63378 0.0
H115 H 0.21053 0.45249 0.54921 0.0
H116 H 0.26974 0.45757 0.54841 0.0
H117 H 0.29911 0.45806 0.54462 0.0
H118 H 0.29430 0.44914 0.45764 0.0
H119 H 0.26618 0.44833 0.46159 0.0
H120 H 0.21374 0.45336 0.45866 0.0
H121 H 0.18489 0.45905 0.37011 0.0
H122 H 0.16944 0.45793 0.32070 0.0
H123 H 0.12677 0.44909 0.37058 0.0
H124 H 0.14266 0.44755 0.41371 0.0
H125 H 0.16898 0.45286 0.49906 0.0
H126 H 0.14059 0.44614 0.58851 0.0
H127 H 0.12516 0.45029 0.63199 0.0
H128 H 0.16790 0.45803 0.67654 0.0
H129 H 0.18212 0.45514 0.63412 0.0
C130 C 0.57814 0.22902 0.53297 0.0
C131 C 0.57800 0.23874 0.50794 0.0
C132 C 0.57834 0.25663 0.50703 0.0
C133 C 0.57809 0.27229 0.50656 0.0
C134 C 0.57837 0.28913 0.50719 0.0
C135 C 0.57499 0.29836 0.53253 0.0
C136 C 0.57445 0.31597 0.53023 0.0
C137 C 0.57667 0.32241 0.50294 0.0
C138 C 0.57976 0.31324 0.47916 0.0
C139 C 0.58038 0.29641 0.48173 0.0
C140 C 0.57743 0.23091 0.47858 0.0
C141 C 0.57716 0.21291 0.47540 0.0
C142 C 0.57647 0.20495 0.44740 0.0
C143 C 0.57585 0.19767 0.42427 0.0
C144 C 0.57694 0.18762 0.39749 0.0
C145 C 0.57382 0.19704 0.37142 0.0
C146 C 0.57442 0.18778 0.34164 0.0
C147 C 0.57812 0.16954 0.34425 0.0
C148 C 0.58022 0.16193 0.37231 0.0
C149 C 0.58041 0.17140 0.39812 0.0
C150 C 0.57772 0.20417 0.50251 0.0
C151 C 0.57829 0.21238 0.53225 0.0
C152 C 0.57807 0.20320 0.55782 0.0
C153 C 0.57815 0.19500 0.58039 0.0
C154 C 0.57788 0.18555 0.60888 0.0
C155 C 0.58113 0.16973 0.60921 0.0
C156 C 0.57980 0.16047 0.63528 0.0
C157 C 0.57774 0.16909 0.66271 0.0
C158 C 0.57512 0.18584 0.66112 0.0
C159 C 0.57602 0.19428 0.63632 0.0
H160 H 0.57812 0.23426 0.55186 0.0
H161 H 0.57308 0.29327 0.55091 0.0
H162 H 0.57261 0.32262 0.54712 0.0
H163 H 0.58152 0.31815 0.46049 0.0
H164 H 0.58231 0.29006 0.46445 0.0
H165 H 0.57725 0.23741 0.46128 0.0
H166 H 0.57154 0.20827 0.37248 0.0
H167 H 0.57266 0.19286 0.32310 0.0
H168 H 0.58147 0.15057 0.37330 0.0
H169 H 0.58302 0.16654 0.41650 0.0
H170 H 0.57772 0.19267 0.50166 0.0
H171 H 0.58442 0.16458 0.59135 0.0
H172 H 0.58026 0.14900 0.63466 0.0
H173 H 0.57255 0.19143 0.67894 0.0
H174 H 0.57545 0.20576 0.63665 0.0
C175 C 0.80555 0.59126 0.47061 0.0
C176 C 0.79583 0.59141 0.49566 0.0
C177 C 0.77794 0.59108 0.49659 0.0
C178 C 0.76229 0.59135 0.49706 0.0
C179 C 0.74545 0.59107 0.49645 0.0
C180 C 0.73623 0.59446 0.47113 0.0
C181 C 0.71862 0.59502 0.47344 0.0
C182 C 0.71218 0.59280 0.50074 0.0
C183 C 0.72133 0.58970 0.52450 0.0
C184 C 0.73816 0.58907 0.52191 0.0
C185 C 0.80365 0.59198 0.52501 0.0
C186 C 0.82164 0.59224 0.52817 0.0
C187 C 0.82959 0.59292 0.55617 0.0
C188 C 0.83687 0.59354 0.57930 0.0
C189 C 0.84690 0.59244 0.60606 0.0
C190 C 0.83748 0.59557 0.63215 0.0
C191 C 0.84673 0.59496 0.66192 0.0
C192 C 0.86496 0.59125 0.65929 0.0
C193 C 0.87258 0.58914 0.63122 0.0
C194 C 0.86312 0.58895 0.60541 0.0
C195 C 0.83039 0.59167 0.50106 0.0
C196 C 0.82219 0.59111 0.47132 0.0
C197 C 0.83138 0.59132 0.44575 0.0
C198 C 0.83958 0.59123 0.42317 0.0
C199 C 0.84904 0.59149 0.39467 0.0
C200 C 0.86486 0.58823 0.39432 0.0
C201 C 0.87413 0.58956 0.36825 0.0
C202 C 0.86552 0.59163 0.34083 0.0
C203 C 0.84877 0.59426 0.34243 0.0
C204 C 0.84032 0.59336 0.36724 0.0
H205 H 0.80033 0.59129 0.45174 0.0
H206 H 0.74133 0.59637 0.45274 0.0
H207 H 0.71198 0.59686 0.45656 0.0
H208 H 0.71641 0.58794 0.54317 0.0
H209 H 0.74450 0.58714 0.53918 0.0
H210 H 0.79715 0.59216 0.54232 0.0
H211 H 0.82625 0.59785 0.63110 0.0
H212 H 0.84165 0.59673 0.68047 0.0
H213 H 0.88394 0.58788 0.63022 0.0
H214 H 0.86798 0.58635 0.58702 0.0
H215 H 0.84189 0.59166 0.50190 0.0
H216 H 0.86999 0.58494 0.41217 0.0
H217 H 0.88559 0.58909 0.36886 0.0
H218 H 0.84319 0.59683 0.32463 0.0
H219 H 0.82885 0.59394 0.36693 0.0
C220 C 0.43890 0.82326 0.46844 0.0
C221 C 0.43876 0.81354 0.49347 0.0
C222 C 0.43910 0.79566 0.49439 0.0
C223 C 0.43884 0.77999 0.49484 0.0
C224 C 0.43913 0.76316 0.49422 0.0
C225 C 0.43575 0.75379 0.46876 0.0
C226 C 0.43521 0.73615 0.47103 0.0
C227 C 0.43743 0.72981 0.49841 0.0
C228 C 0.44052 0.73911 0.52230 0.0
C229 C 0.44114 0.75597 0.51975 0.0
C230 C 0.43819 0.82134 0.52281 0.0
C231 C 0.43791 0.83932 0.52598 0.0
C232 C 0.43723 0.84725 0.55395 0.0
C233 C 0.43660 0.85451 0.57707 0.0
C234 C 0.43770 0.86460 0.60389 0.0
C235 C 0.43457 0.85505 0.62984 0.0
C236 C 0.43518 0.86433 0.65964 0.0
C237 C 0.43887 0.88273 0.65718 0.0
C238 C 0.44098 0.89044 0.62920 0.0
C239 C 0.44117 0.88097 0.60339 0.0
C240 C 0.43848 0.84809 0.49889 0.0
C241 C 0.43904 0.83991 0.46917 0.0
C242 C 0.43883 0.84908 0.44360 0.0
C243 C 0.43891 0.85728 0.42103 0.0
C244 C 0.43864 0.86672 0.39254 0.0
C245 C 0.44189 0.88269 0.39233 0.0
C246 C 0.44056 0.89189 0.36621 0.0
C247 C 0.43849 0.88318 0.33870 0.0
C248 C 0.43587 0.86632 0.34019 0.0
C249 C 0.43678 0.85791 0.36502 0.0
H250 H 0.43888 0.81803 0.44956 0.0
H251 H 0.43384 0.75880 0.45030 0.0
H252 H 0.43337 0.72943 0.45407 0.0
H253 H 0.44228 0.73427 0.54104 0.0
H254 H 0.44307 0.76239 0.53711 0.0
H255 H 0.43801 0.81483 0.54010 0.0
H256 H 0.43230 0.84371 0.62869 0.0
H257 H 0.43341 0.85917 0.67812 0.0
H258 H 0.44222 0.90185 0.62826 0.0
H259 H 0.44377 0.88594 0.58511 0.0
H260 H 0.43848 0.85959 0.49975 0.0
H261 H 0.44518 0.88797 0.41031 0.0
H262 H 0.44101 0.90338 0.36685 0.0
H263 H 0.43331 0.86062 0.32227 0.0
H264 H 0.43621 0.84641 0.36467 0.0
C265 C 0.33856 0.48512 0.50031 0.0
C266 C 0.35364 0.47380 0.50062 0.0
C267 C 0.35109 0.45487 0.50095 0.0
C268 C 0.33347 0.44726 0.50097 0.0
C269 C 0.42425 0.50398 0.50053 0.0
C270 C 0.32094 0.47750 0.50033 0.0
C271 C 0.37127 0.48140 0.50060 0.0
C272 C 0.38892 0.48895 0.50058 0.0
C273 C 0.40658 0.49648 0.50055 0.0
C274 C 0.31839 0.45857 0.50066 0.0
H275 H 0.34045 0.49913 0.50006 0.0
H276 H 0.36225 0.44649 0.50119 0.0
H277 H 0.33159 0.43324 0.50120 0.0
H278 H 0.30978 0.48587 0.50010 0.0
C279 C 0.57594 0.37477 0.50273 0.0
C280 C 0.55701 0.37656 0.50269 0.0
C281 C 0.54565 0.36103 0.50289 0.0
C282 C 0.55320 0.34371 0.50315 0.0
C283 C 0.52651 0.44573 0.50170 0.0
C284 C 0.58349 0.35744 0.50298 0.0
C285 C 0.54944 0.39387 0.50243 0.0
C286 C 0.54182 0.41117 0.50218 0.0
C287 C 0.53418 0.42845 0.50194 0.0
C288 C 0.57212 0.34191 0.50319 0.0
H289 H 0.58435 0.38626 0.50258 0.0
H290 H 0.53164 0.36235 0.50285 0.0
H291 H 0.54479 0.33221 0.50331 0.0
H292 H 0.59750 0.35611 0.50301 0.0
C293 C 0.65992 0.59263 0.50123 0.0
C294 C 0.65696 0.57375 0.50028 0.0
C295 C 0.67177 0.56211 0.49935 0.0
C296 C 0.68955 0.56934 0.49937 0.0
C297 C 0.58596 0.54452 0.50020 0.0
C298 C 0.67769 0.59986 0.50125 0.0
C299 C 0.63919 0.56649 0.50026 0.0
C300 C 0.62144 0.55919 0.50023 0.0
C301 C 0.60370 0.55187 0.50022 0.0
C302 C 0.69251 0.58822 0.50032 0.0
H303 H 0.64895 0.60125 0.50192 0.0
H304 H 0.66959 0.54813 0.49863 0.0
H305 H 0.70051 0.56072 0.49869 0.0
H306 H 0.67988 0.61384 0.50195 0.0
C307 C 0.43762 0.67753 0.49851 0.0
C308 C 0.45650 0.67540 0.49876 0.0
C309 C 0.46814 0.69074 0.49872 0.0
C310 C 0.46090 0.70820 0.49843 0.0
C311 C 0.48575 0.60568 0.49995 0.0
C312 C 0.43038 0.69500 0.49822 0.0
C313 C 0.46376 0.65795 0.49905 0.0
C314 C 0.47106 0.64052 0.49935 0.0
C315 C 0.47839 0.62309 0.49965 0.0
C316 C 0.44202 0.71033 0.49818 0.0
H317 H 0.42900 0.66618 0.49854 0.0
H318 H 0.48211 0.68916 0.49890 0.0
H319 H 0.46952 0.71954 0.49841 0.0
H320 H 0.41641 0.69658 0.49803 0.0
C321 C 0.03598 0.50950 0.92768 0.0
C322 C 0.04685 0.50359 0.90141 0.0
C323 C 0.05773 0.49769 0.87513 0.0
C324 C 0.07287 0.48699 0.88164 0.0
C325 C 0.08373 0.48109 0.85536 0.0
C326 C 0.07947 0.48588 0.82257 0.0
C327 C 0.06433 0.49658 0.81606 0.0
C328 C 0.05347 0.50248 0.84234 0.0
C329 C 0.09033 0.47996 0.79629 0.0
C330 C 0.08606 0.48474 0.76350 0.0
C331 C 0.09693 0.47882 0.73723 0.0
C332 C 0.11208 0.46814 0.74376 0.0
C333 C 0.11634 0.46336 0.77655 0.0
C334 C 0.10547 0.46928 0.80282 0.0
C335 C 0.12295 0.46222 0.71749 0.0
C336 C 0.13384 0.45629 0.69126 0.0
H337 H 0.07603 0.48345 0.90592 0.0
H338 H 0.09493 0.47317 0.86017 0.0
H339 H 0.06117 0.50012 0.79179 0.0
H340 H 0.04227 0.51040 0.83753 0.0
H341 H 0.07486 0.49266 0.75866 0.0
H342 H 0.09377 0.48235 0.71294 0.0
H343 H 0.12755 0.45544 0.78139 0.0
H344 H 0.10863 0.46574 0.82710 0.0
C345 C 0.52087 0.05737 0.92814 0.0
C346 C 0.52681 0.06848 0.90211 0.0
C347 C 0.53274 0.07959 0.87607 0.0
C348 C 0.52008 0.08689 0.85390 0.0
C349 C 0.52602 0.09800 0.82788 0.0
C350 C 0.54462 0.10181 0.82402 0.0
C351 C 0.55728 0.09450 0.84619 0.0
C352 C 0.55134 0.08339 0.87220 0.0
C353 C 0.55056 0.11293 0.79800 0.0
C354 C 0.56915 0.11675 0.79415 0.0
C355 C 0.57508 0.12786 0.76812 0.0
C356 C 0.56241 0.13515 0.74595 0.0
C357 C 0.54382 0.13133 0.74981 0.0
C358 C 0.53789 0.12021 0.77583 0.0
C359 C 0.56834 0.14627 0.71992 0.0
C360 C 0.57424 0.15738 0.69387 0.0
H361 H 0.50631 0.08407 0.85676 0.0
H362 H 0.51666 0.10341 0.81148 0.0
H363 H 0.57105 0.09732 0.84333 0.0
H364 H 0.56071 0.07798 0.88861 0.0
H365 H 0.57853 0.11135 0.81055 0.0
H366 H 0.58884 0.13070 0.76527 0.0
H367 H 0.53444 0.13673 0.73340 0.0
H368 H 0.52412 0.11738 0.77869 0.0
C369 C 0.97438 0.53428 0.07303 0.0
C370 C 0.96355 0.54024 0.09932 0.0
C371 C 0.95273 0.54621 0.12562 0.0
C372 C 0.96054 0.55646 0.15189 0.0
C373 C 0.94971 0.56242 0.17818 0.0
C374 C 0.93106 0.55813 0.17820 0.0
C375 C 0.92324 0.54788 0.15193 0.0
C376 C 0.93408 0.54192 0.12565 0.0
C377 C 0.92023 0.56411 0.20448 0.0
C378 C 0.90158 0.55983 0.20450 0.0
C379 C 0.89076 0.56581 0.23079 0.0
C380 C 0.89858 0.57605 0.25706 0.0
C381 C 0.91724 0.58033 0.25704 0.0
C382 C 0.92806 0.57435 0.23075 0.0
C383 C 0.88776 0.58203 0.28336 0.0
C384 C 0.87696 0.58801 0.30968 0.0
H385 H 0.97435 0.55963 0.15188 0.0
H386 H 0.95549 0.57001 0.19762 0.0
H387 H 0.90944 0.54471 0.15194 0.0
H388 H 0.92830 0.53432 0.10621 0.0
H389 H 0.89578 0.55225 0.18506 0.0
H390 H 0.87694 0.56266 0.23081 0.0
H391 H 0.92303 0.58791 0.27649 0.0
H392 H 0.94187 0.57751 0.23073 0.0
C393 C 0.49589 0.99438 0.07336 0.0
C394 C 0.48991 0.98330 0.09940 0.0
C395 C 0.48393 0.97223 0.12545 0.0
C396 C 0.49659 0.96405 0.14649 0.0
C397 C 0.49060 0.95298 0.17254 0.0
C398 C 0.47194 0.95009 0.17753 0.0
C399 C 0.45928 0.95826 0.15648 0.0
C400 C 0.46527 0.96932 0.13044 0.0
C401 C 0.46596 0.93902 0.20359 0.0
C402 C 0.44730 0.93613 0.20861 0.0
C403 C 0.44132 0.92507 0.23467 0.0
C404 C 0.45400 0.91689 0.25569 0.0
C405 C 0.47265 0.91978 0.25067 0.0
C406 C 0.47863 0.93084 0.22462 0.0
C407 C 0.44802 0.90582 0.28175 0.0
C408 C 0.44207 0.89474 0.30782 0.0
H409 H 0.51040 0.96620 0.14279 0.0
H410 H 0.49997 0.94694 0.18812 0.0
H411 H 0.44547 0.95612 0.16019 0.0
H412 H 0.45590 0.97537 0.11485 0.0
H413 H 0.43792 0.94218 0.19304 0.0
H414 H 0.42752 0.92293 0.23841 0.0
H415 H 0.48204 0.91373 0.26625 0.0
H416 H 0.49244 0.93298 0.22089 0.0
C417 C 0.52109 0.05725 0.07432 0.0
C418 C 0.52700 0.06842 0.10096 0.0
C419 C 0.53292 0.07958 0.12759 0.0
C420 C 0.53608 0.09821 0.12269 0.0
C421 C 0.54199 0.10937 0.14933 0.0
C422 C 0.54474 0.10190 0.18088 0.0
C423 C 0.54158 0.08327 0.18579 0.0
C424 C 0.53567 0.07212 0.15915 0.0
C425 C 0.55063 0.11307 0.20753 0.0
C426 C 0.55338 0.10560 0.23909 0.0
C427 C 0.55928 0.11677 0.26573 0.0
C428 C 0.56245 0.13540 0.26079 0.0
C429 C 0.55971 0.14286 0.22923 0.0
C430 C 0.55381 0.13169 0.20260 0.0
C431 C 0.56835 0.14657 0.28743 0.0
C432 C 0.57426 0.15776 0.31403 0.0
H433 H 0.53405 0.10374 0.09932 0.0
H434 H 0.54433 0.12316 0.14570 0.0
H435 H 0.54361 0.07774 0.20915 0.0
H436 H 0.53334 0.05832 0.16277 0.0
H437 H 0.55104 0.09181 0.24274 0.0
H438 H 0.56130 0.11126 0.28910 0.0
H439 H 0.56205 0.15665 0.22558 0.0
H440 H 0.55178 0.13721 0.17923 0.0
C441 C 0.03616 0.50917 0.07413 0.0
C442 C 0.04707 0.50328 0.10054 0.0
C443 C 0.05797 0.49740 0.12694 0.0
C444 C 0.07627 0.49346 0.12153 0.0
C445 C 0.08717 0.48758 0.14795 0.0
C446 C 0.07978 0.48563 0.17977 0.0
C447 C 0.06148 0.48957 0.18517 0.0
C448 C 0.05058 0.49545 0.15876 0.0
C449 C 0.09068 0.47977 0.20618 0.0
C450 C 0.08330 0.47783 0.23800 0.0
C451 C 0.09421 0.47196 0.26441 0.0
C452 C 0.11250 0.46801 0.25898 0.0
C453 C 0.11989 0.46994 0.22715 0.0
C454 C 0.10897 0.47582 0.20075 0.0
C455 C 0.12342 0.46213 0.28538 0.0
C456 C 0.13435 0.45625 0.31175 0.0
H457 H 0.08174 0.49489 0.09798 0.0
H458 H 0.10071 0.48466 0.14395 0.0
H459 H 0.05601 0.48814 0.20873 0.0
H460 H 0.03704 0.49836 0.16275 0.0
H461 H 0.06976 0.48075 0.24203 0.0
H462 H 0.08876 0.47053 0.28798 0.0
H463 H 0.13343 0.46702 0.22314 0.0
H464 H 0.11443 0.47724 0.17718 0.0
C465 C 0.97405 0.53411 0.92705 0.0
C466 C 0.96322 0.54010 0.90063 0.0
C467 C 0.95238 0.54608 0.87421 0.0
C468 C 0.93383 0.54136 0.87280 0.0
C469 C 0.92301 0.54735 0.84638 0.0
C470 C 0.93073 0.55807 0.82136 0.0
C471 C 0.94928 0.56279 0.82275 0.0
C472 C 0.96010 0.55680 0.84917 0.0
C473 C 0.91989 0.56407 0.79495 0.0
C474 C 0.92760 0.57479 0.76993 0.0
C475 C 0.91676 0.58079 0.74352 0.0
C476 C 0.89822 0.57605 0.74212 0.0
C477 C 0.89050 0.56532 0.76714 0.0
C478 C 0.90135 0.55933 0.79355 0.0
C479 C 0.88737 0.58204 0.71571 0.0
C480 C 0.87651 0.58801 0.68932 0.0
H481 H 0.92812 0.53342 0.89133 0.0
H482 H 0.90928 0.54386 0.84534 0.0
H483 H 0.95499 0.57073 0.80423 0.0
H484 H 0.97383 0.56029 0.85021 0.0
H485 H 0.94133 0.57830 0.77095 0.0
H486 H 0.92246 0.58874 0.72500 0.0
H487 H 0.87677 0.56181 0.76611 0.0
H488 H 0.89564 0.55138 0.81207 0.0
C489 C 0.49617 0.99437 0.92703 0.0
C490 C 0.49016 0.98326 0.90038 0.0
C491 C 0.48415 0.97216 0.87373 0.0
C492 C 0.49667 0.96215 0.85538 0.0
C493 C 0.49065 0.95105 0.82874 0.0
C494 C 0.47211 0.94995 0.82045 0.0
C495 C 0.45959 0.95996 0.83879 0.0
C496 C 0.46561 0.97106 0.86543 0.0
C497 C 0.46609 0.93883 0.79382 0.0
C498 C 0.44756 0.93772 0.78553 0.0
C499 C 0.44155 0.92661 0.75889 0.0
C500 C 0.45408 0.91661 0.74054 0.0
C501 C 0.47262 0.91773 0.74883 0.0
C502 C 0.47862 0.92884 0.77547 0.0
C503 C 0.44807 0.90550 0.71390 0.0
C504 C 0.44209 0.89438 0.68725 0.0
H505 H 0.51039 0.96297 0.86152 0.0
H506 H 0.49991 0.94364 0.81517 0.0
H507 H 0.44586 0.95914 0.83266 0.0
H508 H 0.45634 0.97847 0.87900 0.0
H509 H 0.43828 0.94512 0.79910 0.0
H510 H 0.42782 0.92577 0.75276 0.0
H511 H 0.48189 0.91032 0.73525 0.0
H512 H 0.49235 0.92967 0.78161 0.0
