data_{}
_symmetry_space_group_name_H-M    P1
_symmetry_Int_Tables_number       1
_symmetry_cell_setting            triclinic
loop_
_symmetry_equiv_pos_as_xyz
'x, y, z'
_cell_length_a     59.894
_cell_length_b     63.631
_cell_length_c     37.430
_cell_angle_alpha  89.998
_cell_angle_beta   90.137
_cell_angle_gamma  123.394
loop_
_atom_site_label
_atom_site_type_symbol
_atom_site_fract_x
_atom_site_fract_y
_atom_site_fract_z
_atom_type_partial_charge
C0 C 0.03558 0.03375 0.01170 0.0
C1 C 0.02767 0.05304 0.01174 0.0
C2 C 0.99794 0.04395 0.01178 0.0
C3 C 0.97612 0.01557 0.01177 0.0
C4 C 0.98402 0.99628 0.01172 0.0
C5 C 0.01375 0.00536 0.01169 0.0
H6 H 0.04383 0.07405 0.01175 0.0
H7 H 0.95411 0.00884 0.01179 0.0
H8 H 0.01960 0.99108 0.01166 0.0
C9 C 0.85987 0.33945 0.77598 0.0
C10 C 0.83955 0.31639 0.79834 0.0
C11 C 0.84926 0.30856 0.83072 0.0
C12 C 0.82919 0.28550 0.85328 0.0
C13 C 0.83912 0.27778 0.88558 0.0
C14 C 0.86906 0.29312 0.89518 0.0
C15 C 0.88908 0.31621 0.87270 0.0
C16 C 0.87917 0.32391 0.84045 0.0
C17 C 0.85642 0.26544 0.94914 0.0
C18 C 0.87101 0.26388 0.98174 0.0
C19 C 0.88222 0.24722 0.98038 0.0
C20 C 0.90118 0.24952 0.01015 0.0
C21 C 0.90626 0.26604 0.04320 0.0
C22 C 0.89289 0.28084 0.04598 0.0
C23 C 0.87529 0.27979 0.01517 0.0
C24 C 0.86373 0.29622 0.01654 0.0
C25 C 0.87630 0.22994 0.94792 0.0
C26 C 0.92545 0.26840 0.07274 0.0
C27 C 0.91543 0.23562 0.00683 0.0
C28 C 0.96036 0.24408 0.99805 0.0
C29 C 0.94652 0.21561 0.00401 0.0
C30 C 0.96333 0.20408 0.00600 0.0
C31 C 0.99393 0.22106 0.00202 0.0
C32 C 0.00774 0.24952 0.99576 0.0
C33 C 0.99093 0.26104 0.99378 0.0
C34 C 0.01068 0.20948 0.00438 0.0
C35 C 0.99673 0.18102 0.01081 0.0
C36 C 0.89829 0.29785 0.07845 0.0
C37 C 0.88057 0.29655 0.13798 0.0
C38 C 0.90291 0.32470 0.14047 0.0
C39 C 0.90200 0.34108 0.16992 0.0
C40 C 0.87870 0.32927 0.19673 0.0
C41 C 0.85641 0.30110 0.19425 0.0
C42 C 0.85734 0.28472 0.16485 0.0
C43 C 0.87754 0.34560 0.22600 0.0
C44 C 0.85403 0.33364 0.25245 0.0
O45 O 0.87891 0.28589 0.92694 0.0
O46 O 0.88072 0.28077 0.10814 0.0
O47 O 0.94399 0.25546 0.99728 0.0
H48 H 0.88198 0.35063 0.78349 0.0
H49 H 0.81743 0.30516 0.79091 0.0
H50 H 0.80704 0.27415 0.84609 0.0
H51 H 0.82432 0.26075 0.90237 0.0
H52 H 0.91123 0.32759 0.87996 0.0
H53 H 0.89398 0.34097 0.82375 0.0
H54 H 0.84520 0.24684 0.93392 0.0
H55 H 0.84222 0.27113 0.95778 0.0
H56 H 0.87326 0.31009 0.03969 0.0
H57 H 0.84115 0.28377 0.02050 0.0
H58 H 0.86833 0.30700 0.99037 0.0
H59 H 0.87001 0.23681 0.92419 0.0
H60 H 0.85935 0.20991 0.95493 0.0
H61 H 0.89486 0.23010 0.94069 0.0
H62 H 0.92773 0.28239 0.09384 0.0
H63 H 0.94577 0.27535 0.06043 0.0
H64 H 0.91713 0.24923 0.08560 0.0
H65 H 0.91469 0.22659 0.03349 0.0
H66 H 0.90578 0.22068 0.98497 0.0
H67 H 0.92387 0.20309 0.00711 0.0
H68 H 0.95314 0.18301 0.01050 0.0
H69 H 0.03039 0.26207 0.99268 0.0
H70 H 0.00111 0.28214 0.98929 0.0
H71 H 0.03335 0.22195 0.00143 0.0
H72 H 0.97406 0.16861 0.01374 0.0
H73 H 0.92021 0.30853 0.08681 0.0
H74 H 0.89251 0.31171 0.07153 0.0
H75 H 0.92000 0.33341 0.12038 0.0
H76 H 0.91849 0.36195 0.17181 0.0
H77 H 0.83918 0.29242 0.21413 0.0
H78 H 0.84077 0.26391 0.16282 0.0
H79 H 0.89399 0.36647 0.22806 0.0
H80 H 0.83761 0.31276 0.25029 0.0
C81 C 0.51353 0.19881 0.24903 0.0
C82 C 0.50749 0.17595 0.22658 0.0
C83 C 0.48858 0.16774 0.19416 0.0
C84 C 0.48227 0.14486 0.17150 0.0
C85 C 0.46326 0.13675 0.13916 0.0
C86 C 0.45060 0.15151 0.12963 0.0
C87 C 0.45698 0.17442 0.15221 0.0
C88 C 0.47596 0.18251 0.18450 0.0
C89 C 0.43141 0.12375 0.07555 0.0
C90 C 0.41479 0.12177 0.04294 0.0
C91 C 0.38413 0.10454 0.04423 0.0
C92 C 0.36754 0.10636 0.01446 0.0
C93 C 0.38150 0.12300 0.98149 0.0
C94 C 0.41220 0.13840 0.97877 0.0
C95 C 0.42886 0.13781 0.00958 0.0
C96 C 0.45961 0.15481 0.00828 0.0
C97 C 0.37016 0.08716 0.07661 0.0
C98 C 0.36474 0.12488 0.95195 0.0
C99 C 0.33699 0.09186 0.01772 0.0
C100 C 0.30115 0.09923 0.02653 0.0
C101 C 0.28225 0.07069 0.02044 0.0
C102 C 0.25185 0.05853 0.01840 0.0
C103 C 0.24041 0.07493 0.02245 0.0
C104 C 0.25932 0.10347 0.02884 0.0
C105 C 0.28972 0.11562 0.03087 0.0
C106 C 0.21001 0.06272 0.02003 0.0
C107 C 0.19125 0.03420 0.01348 0.0
C108 C 0.42640 0.15553 0.94638 0.0
C109 C 0.44290 0.15469 0.88684 0.0
C110 C 0.45277 0.18267 0.88448 0.0
C111 C 0.47265 0.19934 0.85509 0.0
C112 C 0.48266 0.18798 0.82824 0.0
C113 C 0.47271 0.15998 0.83060 0.0
C114 C 0.45281 0.14331 0.85992 0.0
C115 C 0.50273 0.20459 0.79904 0.0
C116 C 0.51277 0.19309 0.77254 0.0
O117 O 0.43224 0.14391 0.09784 0.0
O118 O 0.42449 0.13866 0.91661 0.0
O119 O 0.33094 0.11123 0.02735 0.0
H120 H 0.50402 0.20957 0.24157 0.0
H121 H 0.51696 0.16514 0.23396 0.0
H122 H 0.49164 0.13393 0.17864 0.0
H123 H 0.45858 0.11985 0.12231 0.0
H124 H 0.44766 0.18537 0.14499 0.0
H125 H 0.48066 0.19943 0.20127 0.0
H126 H 0.42129 0.10516 0.09069 0.0
H127 H 0.45242 0.12991 0.06693 0.0
H128 H 0.46598 0.16864 0.98519 0.0
H129 H 0.46814 0.14278 0.00427 0.0
H130 H 0.46741 0.16564 0.03450 0.0
H131 H 0.38448 0.09430 0.10037 0.0
H132 H 0.36420 0.06727 0.06951 0.0
H133 H 0.35149 0.08681 0.08383 0.0
H134 H 0.37861 0.13902 0.93091 0.0
H135 H 0.35215 0.13139 0.96429 0.0
H136 H 0.35101 0.10564 0.93900 0.0
H137 H 0.32729 0.08271 0.99102 0.0
H138 H 0.32951 0.07695 0.03951 0.0
H139 H 0.29078 0.05859 0.01729 0.0
H140 H 0.23781 0.03740 0.01381 0.0
H141 H 0.25083 0.11559 0.03196 0.0
H142 H 0.30379 0.13677 0.03545 0.0
H143 H 0.20141 0.07477 0.02304 0.0
H144 H 0.19990 0.02220 0.01050 0.0
H145 H 0.41650 0.16578 0.93805 0.0
H146 H 0.44831 0.16977 0.95336 0.0
H147 H 0.44550 0.19106 0.90459 0.0
H148 H 0.48005 0.22008 0.85330 0.0
H149 H 0.48016 0.15162 0.81068 0.0
H150 H 0.44555 0.12262 0.86187 0.0
H151 H 0.51017 0.22534 0.79707 0.0
H152 H 0.50529 0.17233 0.77461 0.0
C153 C 0.66658 0.53739 0.77522 0.0
C154 C 0.69163 0.54544 0.79775 0.0
C155 C 0.69860 0.56295 0.83012 0.0
C156 C 0.72364 0.57124 0.85285 0.0
C157 C 0.73048 0.58883 0.88514 0.0
C158 C 0.71230 0.59810 0.89455 0.0
C159 C 0.68724 0.58975 0.87190 0.0
C160 C 0.68041 0.57219 0.83966 0.0
C161 C 0.74129 0.61823 0.94867 0.0
C162 C 0.74151 0.63299 0.98122 0.0
C163 C 0.75723 0.66187 0.97987 0.0
C164 C 0.75316 0.67615 0.00956 0.0
C165 C 0.73609 0.66194 0.04251 0.0
C166 C 0.72244 0.63325 0.04530 0.0
C167 C 0.72512 0.61876 0.01456 0.0
C168 C 0.70968 0.58984 0.01593 0.0
C169 C 0.77514 0.67618 0.94750 0.0
C170 C 0.73194 0.67635 0.07197 0.0
C171 C 0.76582 0.70459 0.00623 0.0
C172 C 0.75317 0.73502 0.99722 0.0
C173 C 0.78306 0.75498 0.00335 0.0
C174 C 0.79310 0.78302 0.00531 0.0
C175 C 0.77321 0.79103 0.00114 0.0
C176 C 0.74332 0.77105 0.99471 0.0
C177 C 0.73329 0.74301 0.99276 0.0
C178 C 0.78330 0.81907 0.00348 0.0
C179 C 0.81320 0.83891 0.01007 0.0
C180 C 0.70485 0.61877 0.07768 0.0
C181 C 0.70779 0.60446 0.13729 0.0
C182 C 0.67743 0.59244 0.13958 0.0
C183 C 0.66104 0.57305 0.16898 0.0
C184 C 0.67506 0.56569 0.19592 0.0
C185 C 0.70544 0.57777 0.19365 0.0
C186 C 0.72182 0.59718 0.16430 0.0
C187 C 0.65876 0.54614 0.22514 0.0
C188 C 0.67295 0.53876 0.25174 0.0
O189 O 0.71865 0.61507 0.92629 0.0
O190 O 0.72363 0.62248 0.10751 0.0
O191 O 0.74323 0.70754 0.99648 0.0
H192 H 0.65330 0.54440 0.78259 0.0
H193 H 0.70497 0.53847 0.79046 0.0
H194 H 0.73710 0.56438 0.84579 0.0
H195 H 0.74897 0.59496 0.90205 0.0
H196 H 0.67376 0.59657 0.87903 0.0
H197 H 0.66189 0.56604 0.82284 0.0
H198 H 0.76102 0.62933 0.93356 0.0
H199 H 0.73689 0.59913 0.95735 0.0
H200 H 0.69485 0.58260 0.03899 0.0
H201 H 0.72427 0.58384 0.02003 0.0
H202 H 0.69841 0.58171 0.98969 0.0
H203 H 0.76882 0.66281 0.92377 0.0
H204 H 0.79684 0.68380 0.95465 0.0
H205 H 0.77326 0.69254 0.94020 0.0
H206 H 0.71767 0.66253 0.09301 0.0
H207 H 0.72308 0.68657 0.05955 0.0
H208 H 0.75198 0.69068 0.08494 0.0
H209 H 0.77496 0.71418 0.03292 0.0
H210 H 0.78173 0.71294 0.98446 0.0
H211 H 0.79774 0.74900 0.00659 0.0
H212 H 0.81523 0.79784 0.00993 0.0
H213 H 0.72862 0.77700 0.99149 0.0
H214 H 0.71115 0.72816 0.98815 0.0
H215 H 0.76867 0.82512 0.00010 0.0
H216 H 0.82777 0.83280 0.01314 0.0
H217 H 0.69208 0.62618 0.08591 0.0
H218 H 0.69144 0.59790 0.07073 0.0
H219 H 0.66709 0.59778 0.11939 0.0
H220 H 0.63855 0.56408 0.17071 0.0
H221 H 0.71576 0.57228 0.21363 0.0
H222 H 0.74428 0.60603 0.16242 0.0
H223 H 0.63626 0.53713 0.22705 0.0
H224 H 0.69545 0.54782 0.24972 0.0
O225 O 0.66601 0.36660 0.55617 0.0
Be226 Be 0.71245 0.36201 0.55254 0.0
Be227 Be 0.69514 0.39310 0.47256 0.0
O228 O 0.72841 0.35292 0.57597 0.0
Be229 Be 0.69516 0.39311 0.55247 0.0
O230 O 0.72627 0.36883 0.62686 0.0
O231 O 0.69436 0.41410 0.44918 0.0
Be232 Be 0.71243 0.36200 0.47263 0.0
O233 O 0.70581 0.40551 0.39833 0.0
O234 O 0.68046 0.34056 0.46873 0.0
O235 O 0.68048 0.34057 0.55623 0.0
O236 O 0.69439 0.41412 0.57583 0.0
O237 O 0.70587 0.40555 0.62678 0.0
H238 H 0.73357 0.40092 0.57346 0.0
H239 H 0.73355 0.40090 0.45184 0.0
O240 O 0.72838 0.35289 0.44932 0.0
O241 O 0.72622 0.36879 0.39841 0.0
H242 H 0.73445 0.35909 0.51266 0.0
H243 H 0.70154 0.41830 0.51253 0.0
O244 O 0.66599 0.36659 0.46867 0.0
O245 O 0.71779 0.38853 0.56235 0.0
O246 O 0.71777 0.38852 0.46284 0.0
O247 O 0.72012 0.36099 0.51261 0.0
O248 O 0.69738 0.40190 0.51252 0.0
C249 C 0.73194 0.35620 0.60985 0.0
C250 C 0.69827 0.41666 0.41533 0.0
C251 C 0.69832 0.41670 0.60972 0.0
C252 C 0.73190 0.35617 0.41546 0.0
C253 C 0.66194 0.34472 0.55987 0.0
C254 C 0.66192 0.34470 0.46496 0.0
H255 H 0.84475 0.36102 0.76839 0.0
H256 H 0.74494 0.36563 0.65214 0.0
H257 H 0.78365 0.36752 0.62331 0.0
H258 H 0.77809 0.36412 0.69032 0.0
H259 H 0.81792 0.36599 0.66220 0.0
H260 H 0.81180 0.36258 0.72913 0.0
H261 H 0.85129 0.36438 0.70239 0.0
H262 H 0.82535 0.32733 0.76492 0.0
H263 H 0.72554 0.33195 0.64866 0.0
H264 H 0.76426 0.33383 0.61984 0.0
H265 H 0.75870 0.33043 0.68685 0.0
H266 H 0.79853 0.33230 0.65873 0.0
H267 H 0.79241 0.32890 0.72566 0.0
H268 H 0.83190 0.33069 0.69892 0.0
C269 C 0.84194 0.34492 0.75326 0.0
C270 C 0.74146 0.34957 0.63624 0.0
C271 C 0.76744 0.34991 0.63544 0.0
C272 C 0.77490 0.34804 0.67473 0.0
C273 C 0.80163 0.34838 0.67423 0.0
C274 C 0.80879 0.34650 0.71375 0.0
C275 C 0.83491 0.34678 0.71428 0.0
H276 H 0.52630 0.20591 0.32306 0.0
H277 H 0.61558 0.30108 0.46208 0.0
H278 H 0.63645 0.29359 0.40998 0.0
H279 H 0.58625 0.26964 0.41592 0.0
H280 H 0.60657 0.26132 0.36228 0.0
H281 H 0.55643 0.23768 0.36897 0.0
H282 H 0.57573 0.22898 0.31576 0.0
H283 H 0.52622 0.23008 0.29847 0.0
H284 H 0.61551 0.32525 0.43749 0.0
H285 H 0.63638 0.31776 0.38539 0.0
H286 H 0.58617 0.29381 0.39132 0.0
H287 H 0.60650 0.28549 0.33769 0.0
H288 H 0.55636 0.26184 0.34438 0.0
H289 H 0.57566 0.25315 0.29117 0.0
C290 C 0.53618 0.21995 0.30170 0.0
C291 C 0.62605 0.31576 0.44165 0.0
C292 C 0.62614 0.30335 0.40623 0.0
C293 C 0.59648 0.28405 0.39508 0.0
C294 C 0.59633 0.27116 0.35864 0.0
C295 C 0.56651 0.25192 0.34790 0.0
C296 C 0.56559 0.23891 0.31225 0.0
H297 H 0.53654 0.23791 0.73973 0.0
H298 H 0.62578 0.33312 0.60139 0.0
H299 H 0.64131 0.30874 0.63304 0.0
H300 H 0.59643 0.30157 0.64721 0.0
H301 H 0.61137 0.27623 0.68023 0.0
H302 H 0.56660 0.26949 0.69380 0.0
H303 H 0.58064 0.24417 0.72688 0.0
H304 H 0.52124 0.21404 0.70582 0.0
H305 H 0.61047 0.30925 0.56748 0.0
H306 H 0.62600 0.28487 0.59914 0.0
H307 H 0.58112 0.27770 0.61330 0.0
H308 H 0.59607 0.25236 0.64632 0.0
H309 H 0.55129 0.24562 0.65989 0.0
H310 H 0.56534 0.22030 0.69298 0.0
C311 C 0.53726 0.22305 0.72595 0.0
C312 C 0.62708 0.31889 0.58668 0.0
C313 C 0.62493 0.29938 0.61344 0.0
C314 C 0.59750 0.28707 0.63290 0.0
C315 C 0.59507 0.26694 0.66052 0.0
C316 C 0.56751 0.25482 0.67973 0.0
C317 C 0.56444 0.23498 0.70704 0.0
H318 H 0.69065 0.53575 0.28724 0.0
H319 H 0.71939 0.45429 0.39725 0.0
H320 H 0.67688 0.45202 0.40784 0.0
H321 H 0.70967 0.48115 0.36102 0.0
H322 H 0.66658 0.47951 0.37081 0.0
H323 H 0.69977 0.50845 0.32419 0.0
H324 H 0.65753 0.50735 0.33308 0.0
H325 H 0.67401 0.51117 0.25450 0.0
H326 H 0.70275 0.42971 0.36451 0.0
H327 H 0.66024 0.42744 0.37511 0.0
H328 H 0.69303 0.45657 0.32828 0.0
H329 H 0.64994 0.45493 0.33808 0.0
H330 H 0.68313 0.48387 0.29146 0.0
H331 H 0.64089 0.48277 0.30035 0.0
C332 C 0.67127 0.51927 0.27872 0.0
C333 C 0.70020 0.43727 0.38945 0.0
C334 C 0.67954 0.44424 0.38320 0.0
C335 C 0.69038 0.46435 0.35292 0.0
C336 C 0.66926 0.47167 0.34626 0.0
C337 C 0.68043 0.49180 0.31590 0.0
C338 C 0.66022 0.49942 0.30865 0.0
H339 H 0.63966 0.49589 0.74797 0.0
H340 H 0.66820 0.41425 0.63830 0.0
H341 H 0.68341 0.45715 0.61572 0.0
H342 H 0.65887 0.44143 0.67435 0.0
H343 H 0.67398 0.48533 0.65247 0.0
H344 H 0.64939 0.46908 0.71099 0.0
H345 H 0.66397 0.51243 0.69031 0.0
H346 H 0.67093 0.50881 0.77093 0.0
H347 H 0.69946 0.42717 0.66126 0.0
H348 H 0.71468 0.47007 0.63868 0.0
H349 H 0.69014 0.45435 0.69731 0.0
H350 H 0.70525 0.49825 0.67543 0.0
H351 H 0.68066 0.48199 0.73395 0.0
H352 H 0.69524 0.52535 0.71327 0.0
C353 C 0.66094 0.51124 0.74815 0.0
C354 C 0.68966 0.42905 0.63776 0.0
C355 C 0.69328 0.45502 0.63894 0.0
C356 C 0.68026 0.45647 0.67410 0.0
C357 C 0.68387 0.48314 0.67560 0.0
C358 C 0.67074 0.48426 0.71094 0.0
C359 C 0.67390 0.51017 0.71331 0.0
H360 H 0.82528 0.32685 0.26171 0.0
H361 H 0.72544 0.33138 0.37725 0.0
H362 H 0.76485 0.33449 0.40621 0.0
H363 H 0.75860 0.32991 0.33931 0.0
H364 H 0.79914 0.33300 0.36757 0.0
H365 H 0.79233 0.32841 0.30074 0.0
H366 H 0.83251 0.33140 0.32763 0.0
H367 H 0.84410 0.36046 0.25725 0.0
H368 H 0.74426 0.36499 0.37279 0.0
H369 H 0.78367 0.36810 0.40176 0.0
H370 H 0.77743 0.36352 0.33485 0.0
H371 H 0.81796 0.36661 0.36311 0.0
H372 H 0.81115 0.36202 0.29628 0.0
H373 H 0.85133 0.36501 0.32317 0.0
C374 C 0.84178 0.34475 0.27289 0.0
C375 C 0.74127 0.34932 0.38919 0.0
C376 C 0.76755 0.35018 0.39012 0.0
C377 C 0.77472 0.34783 0.35093 0.0
C378 C 0.80175 0.34870 0.35157 0.0
C379 C 0.80862 0.34632 0.31216 0.0
C380 C 0.83503 0.34710 0.31176 0.0
H381 H 0.02202 0.10061 0.00557 0.0
H382 H 0.99127 0.10173 0.05934 0.0
H383 H 0.02142 0.11111 0.06425 0.0
H384 H 0.98435 0.08057 0.97049 0.0
H385 H 0.96857 0.08303 0.00190 0.0
H386 H 0.01424 0.07082 0.04525 0.0
H387 H 0.98373 0.06059 0.04528 0.0
H388 H 0.98058 0.12550 0.01879 0.0
H389 H 0.01134 0.12437 0.96503 0.0
H390 H 0.98119 0.11500 0.96011 0.0
H391 H 0.01825 0.14554 0.05387 0.0
H392 H 0.03403 0.14308 0.02246 0.0
H393 H 0.98837 0.15529 0.97912 0.0
H394 H 0.01888 0.16552 0.97908 0.0
C395 C 0.00832 0.10944 0.04721 0.0
C396 C 0.98593 0.09098 0.99052 0.0
C397 C 0.99990 0.06798 0.03036 0.0
C398 C 0.99428 0.11667 0.97715 0.0
C399 C 0.01667 0.13513 0.03384 0.0
C400 C 0.00307 0.15813 0.99401 0.0
N401 N 0.00590 0.09287 0.01672 0.0
N402 N 0.99671 0.13324 0.00765 0.0
H403 H 0.10350 0.05667 0.01080 0.0
H404 H 0.09240 0.01646 0.96856 0.0
H405 H 0.10669 0.04416 0.95437 0.0
H406 H 0.08114 0.02861 0.05630 0.0
H407 H 0.07675 0.00695 0.03099 0.0
H408 H 0.07039 0.04889 0.97337 0.0
H409 H 0.05472 0.02020 0.98281 0.0
H410 H 0.11627 0.00698 0.01258 0.0
H411 H 0.12737 0.04719 0.05482 0.0
H412 H 0.11308 0.01949 0.06900 0.0
H413 H 0.13863 0.03504 0.96708 0.0
H414 H 0.14302 0.05671 0.99238 0.0
H415 H 0.14938 0.01477 0.05001 0.0
H416 H 0.16505 0.04346 0.04057 0.0
C417 C 0.10428 0.03403 0.97515 0.0
C418 C 0.08883 0.02465 0.03677 0.0
C419 C 0.06635 0.03704 0.99252 0.0
C420 C 0.11549 0.02962 0.04822 0.0
C421 C 0.13094 0.03900 0.98661 0.0
C422 C 0.15342 0.02662 0.03086 0.0
N423 N 0.09189 0.04021 0.00486 0.0
N424 N 0.12788 0.02344 0.01852 0.0
H425 H 0.92020 0.94514 0.04262 0.0
H426 H 0.91745 0.90708 0.00335 0.0
H427 H 0.92248 0.91021 0.04475 0.0
H428 H 0.91638 0.96135 0.98995 0.0
H429 H 0.91372 0.93842 0.96980 0.0
H430 H 0.96185 0.95359 0.03994 0.0
H431 H 0.95892 0.94904 0.99858 0.0
H432 H 0.87361 0.89610 0.98090 0.0
H433 H 0.87636 0.93415 0.02016 0.0
H434 H 0.87133 0.93103 0.97877 0.0
H435 H 0.87743 0.87989 0.03357 0.0
H436 H 0.88009 0.90282 0.05372 0.0
H437 H 0.83196 0.88765 0.98358 0.0
H438 H 0.83489 0.89220 0.02494 0.0
C439 C 0.91363 0.91277 0.02515 0.0
C440 C 0.90995 0.94370 0.99204 0.0
C441 C 0.95415 0.95562 0.01844 0.0
C442 C 0.88018 0.92847 0.99837 0.0
C443 C 0.88386 0.89754 0.03147 0.0
C444 C 0.83967 0.88562 0.00508 0.0
N445 N 0.92427 0.94033 0.02206 0.0
N446 N 0.86954 0.90090 0.00145 0.0
