data_{}
_symmetry_space_group_name_H-M    P1
_symmetry_Int_Tables_number       1
_symmetry_cell_setting            triclinic
loop_
_symmetry_equiv_pos_as_xyz
'x, y, z'
_cell_length_a     73.439
_cell_length_b     76.210
_cell_length_c     40.273
_cell_angle_alpha  89.999
_cell_angle_beta   90.138
_cell_angle_gamma  121.831
loop_
_atom_site_label
_atom_site_type_symbol
_atom_site_fract_x
_atom_site_fract_y
_atom_site_fract_z
_atom_type_partial_charge
C0 C 0.98574 0.01401 0.97050 0.0
C1 C 0.98000 0.99641 0.95209 0.0
C2 C 0.96494 0.97685 0.96430 0.0
C3 C 0.95527 0.97467 0.99458 0.0
C4 C 0.96114 0.99210 0.01307 0.0
C5 C 0.97636 0.01176 0.00144 0.0
C6 C 0.03084 0.04716 0.96992 0.0
C7 C 0.04901 0.06026 0.95196 0.0
C8 C 0.06930 0.06764 0.96313 0.0
C9 C 0.07245 0.06233 0.99415 0.0
C10 C 0.05466 0.04960 0.01423 0.0
C11 C 0.03416 0.04203 0.00179 0.0
C12 C 0.99721 0.05644 0.96942 0.0
C13 C 0.97881 0.05487 0.95652 0.0
C14 C 0.97163 0.06731 0.96881 0.0
C15 C 0.98321 0.08173 0.99377 0.0
O16 O 0.00468 0.03836 0.91591 0.0
C17 C 0.00164 0.08335 0.00616 0.0
C18 C 0.00894 0.07116 0.99374 0.0
P19 P 0.00480 0.03899 0.95288 0.0
H20 H 0.98628 0.99763 0.93121 0.0
H21 H 0.96139 0.96504 0.95183 0.0
H22 H 0.95476 0.99073 0.03390 0.0
H23 H 0.98029 0.02346 0.01449 0.0
H24 H 0.04728 0.06431 0.93074 0.0
H25 H 0.08112 0.07636 0.94958 0.0
H26 H 0.05658 0.04619 0.03585 0.0
H27 H 0.02227 0.03326 0.01507 0.0
H28 H 0.97114 0.04534 0.93941 0.0
H29 H 0.95904 0.06598 0.96028 0.0
H30 H 0.00932 0.09285 0.02326 0.0
H31 H 0.02178 0.07284 0.00180 0.0
C32 C 0.83265 0.35658 0.78220 0.0
C33 C 0.81674 0.33766 0.80298 0.0
C34 C 0.82488 0.33125 0.83307 0.0
C35 C 0.80917 0.31232 0.85404 0.0
C36 C 0.81749 0.30600 0.88406 0.0
C37 C 0.84148 0.31859 0.89297 0.0
C38 C 0.85715 0.33754 0.87208 0.0
C39 C 0.84885 0.34385 0.84211 0.0
C40 C 0.83196 0.29588 0.94313 0.0
C41 C 0.84391 0.29461 0.97343 0.0
C42 C 0.85353 0.28095 0.97216 0.0
C43 C 0.86894 0.28285 0.99990 0.0
C44 C 0.87261 0.29640 0.03054 0.0
C45 C 0.86128 0.30853 0.03313 0.0
C46 C 0.84694 0.30766 0.00450 0.0
C47 C 0.83704 0.32112 0.00577 0.0
C48 C 0.84919 0.26678 0.94199 0.0
C49 C 0.88820 0.29835 0.05800 0.0
C50 C 0.88095 0.27146 0.99674 0.0
C51 C 0.91737 0.27843 0.98858 0.0
C52 C 0.90690 0.25507 0.99412 0.0
C53 C 0.92094 0.24563 0.99596 0.0
C54 C 0.94543 0.25957 0.99226 0.0
C55 C 0.95588 0.28293 0.98644 0.0
C56 C 0.94183 0.29236 0.98460 0.0
C57 C 0.95942 0.25009 0.99445 0.0
C58 C 0.94885 0.22674 0.00010 0.0
C59 C 0.86520 0.32248 0.06331 0.0
C60 C 0.85078 0.32141 0.11864 0.0
C61 C 0.86821 0.34450 0.12095 0.0
C62 C 0.86700 0.35794 0.14833 0.0
C63 C 0.84832 0.34824 0.17324 0.0
C64 C 0.83093 0.32512 0.17094 0.0
C65 C 0.83216 0.31169 0.14361 0.0
C66 C 0.84691 0.36163 0.20045 0.0
C67 C 0.82807 0.35180 0.22504 0.0
O68 O 0.84973 0.31267 0.92249 0.0
O69 O 0.85135 0.30847 0.09090 0.0
O70 O 0.90369 0.28776 0.98786 0.0
H71 H 0.85037 0.36577 0.78918 0.0
H72 H 0.79900 0.32843 0.79608 0.0
H73 H 0.79141 0.30299 0.84736 0.0
H74 H 0.80590 0.29201 0.89966 0.0
H75 H 0.87490 0.34689 0.87883 0.0
H76 H 0.86044 0.35786 0.82659 0.0
H77 H 0.82333 0.28062 0.92898 0.0
H78 H 0.82021 0.30054 0.95116 0.0
H79 H 0.84443 0.33251 0.02729 0.0
H80 H 0.81897 0.31090 0.00946 0.0
H81 H 0.84049 0.32997 0.98145 0.0
H82 H 0.84387 0.27241 0.91994 0.0
H83 H 0.83593 0.25034 0.94851 0.0
H84 H 0.86433 0.26693 0.93527 0.0
H85 H 0.88966 0.30982 0.07761 0.0
H86 H 0.90458 0.30406 0.04656 0.0
H87 H 0.88196 0.28262 0.06995 0.0
H88 H 0.88061 0.26406 0.02152 0.0
H89 H 0.87351 0.25921 0.97643 0.0
H90 H 0.88877 0.24479 0.99700 0.0
H91 H 0.91323 0.22834 0.00010 0.0
H92 H 0.97400 0.29323 0.98358 0.0
H93 H 0.94954 0.30967 0.98043 0.0
H94 H 0.97756 0.26033 0.99170 0.0
H95 H 0.93071 0.21654 0.00316 0.0
H96 H 0.88278 0.33126 0.07108 0.0
H97 H 0.86009 0.33385 0.05688 0.0
H98 H 0.88190 0.35166 0.10228 0.0
H99 H 0.87985 0.37506 0.15008 0.0
H100 H 0.81712 0.31799 0.18942 0.0
H101 H 0.81924 0.29461 0.14172 0.0
H102 H 0.85974 0.37875 0.20236 0.0
H103 H 0.81527 0.33467 0.22303 0.0
C104 C 0.52261 0.22662 0.22169 0.0
C105 C 0.51813 0.20780 0.20083 0.0
C106 C 0.50295 0.20118 0.17070 0.0
C107 C 0.49825 0.18235 0.14964 0.0
C108 C 0.48299 0.17582 0.11959 0.0
C109 C 0.47245 0.18811 0.11073 0.0
C110 C 0.47720 0.20696 0.13171 0.0
C111 C 0.49244 0.21348 0.16171 0.0
C112 C 0.45740 0.16535 0.06046 0.0
C113 C 0.44396 0.16386 0.03016 0.0
C114 C 0.41941 0.14990 0.03136 0.0
C115 C 0.40592 0.15154 0.00369 0.0
C116 C 0.41694 0.16516 0.97305 0.0
C117 C 0.44155 0.17761 0.97052 0.0
C118 C 0.45507 0.17698 0.99990 0.0
C119 C 0.47969 0.19075 0.99794 0.0
C120 C 0.40840 0.13567 0.06146 0.0
C121 C 0.40331 0.16685 0.94559 0.0
C122 C 0.38142 0.13983 0.00672 0.0
C123 C 0.35222 0.14622 0.01491 0.0
C124 C 0.33743 0.12282 0.00926 0.0
C125 C 0.31300 0.11304 0.00737 0.0
C126 C 0.30341 0.12668 0.01113 0.0
C127 C 0.31823 0.15008 0.01706 0.0
C128 C 0.34265 0.15985 0.01895 0.0
C129 C 0.27899 0.11686 0.00889 0.0
C130 C 0.26430 0.09348 0.00280 0.0
C131 C 0.45274 0.19162 0.94041 0.0
C132 C 0.46614 0.19079 0.88508 0.0
C133 C 0.47362 0.21380 0.88288 0.0
C134 C 0.48944 0.22739 0.85556 0.0
C135 C 0.49776 0.21793 0.83061 0.0
C136 C 0.49021 0.19490 0.83280 0.0
C137 C 0.47438 0.18132 0.86006 0.0
C138 C 0.51373 0.23147 0.80346 0.0
C139 C 0.52208 0.22189 0.77883 0.0
O140 O 0.45770 0.18199 0.08118 0.0
O141 O 0.45150 0.17772 0.91275 0.0
O142 O 0.37616 0.15588 0.01567 0.0
H143 H 0.51470 0.23558 0.21476 0.0
H144 H 0.52601 0.19879 0.20768 0.0
H145 H 0.50605 0.17325 0.15628 0.0
H146 H 0.47950 0.16191 0.10392 0.0
H147 H 0.46944 0.21608 0.12500 0.0
H148 H 0.49594 0.22741 0.17730 0.0
H149 H 0.44953 0.15010 0.07454 0.0
H150 H 0.47432 0.17026 0.05246 0.0
H151 H 0.48460 0.20211 0.97648 0.0
H152 H 0.48683 0.18075 0.99421 0.0
H153 H 0.48581 0.19962 0.02231 0.0
H154 H 0.41989 0.14144 0.08354 0.0
H155 H 0.40394 0.11931 0.05486 0.0
H156 H 0.39327 0.13555 0.06817 0.0
H157 H 0.41429 0.17841 0.92604 0.0
H158 H 0.39298 0.17233 0.95706 0.0
H159 H 0.39253 0.15108 0.93356 0.0
H160 H 0.37373 0.13236 0.98191 0.0
H161 H 0.37563 0.12759 0.02698 0.0
H162 H 0.34456 0.11277 0.00634 0.0
H163 H 0.30201 0.09572 0.00310 0.0
H164 H 0.31111 0.16015 0.01997 0.0
H165 H 0.35367 0.17719 0.02320 0.0
H166 H 0.27180 0.12688 0.01168 0.0
H167 H 0.27154 0.08350 0.00010 0.0
H168 H 0.44453 0.20017 0.93267 0.0
H169 H 0.47025 0.20319 0.94690 0.0
H170 H 0.46757 0.22079 0.90157 0.0
H171 H 0.49505 0.24445 0.85389 0.0
H172 H 0.49640 0.18794 0.81429 0.0
H173 H 0.46887 0.16430 0.86187 0.0
H174 H 0.51938 0.24854 0.80163 0.0
H175 H 0.51640 0.20482 0.78076 0.0
C176 C 0.65396 0.53833 0.78142 0.0
C177 C 0.67389 0.54388 0.80235 0.0
C178 C 0.67988 0.55840 0.83244 0.0
C179 C 0.69980 0.56415 0.85357 0.0
C180 C 0.70569 0.57874 0.88357 0.0
C181 C 0.69166 0.58755 0.89232 0.0
C182 C 0.67172 0.58175 0.87127 0.0
C183 C 0.66585 0.56719 0.84131 0.0
C184 C 0.71504 0.60317 0.94262 0.0
C185 C 0.71564 0.61569 0.97287 0.0
C186 C 0.72883 0.63941 0.97161 0.0
C187 C 0.72604 0.65175 0.99990 0.0
C188 C 0.71221 0.64055 0.02984 0.0
C189 C 0.70065 0.61689 0.03243 0.0
C190 C 0.70235 0.60445 0.00386 0.0
C191 C 0.68937 0.58068 0.00513 0.0
C192 C 0.74332 0.65064 0.94152 0.0
C193 C 0.70937 0.65301 0.05722 0.0
C194 C 0.73682 0.67525 0.99611 0.0
C195 C 0.72775 0.70174 0.98774 0.0
C196 C 0.75183 0.71716 0.99343 0.0
C197 C 0.76052 0.74046 0.99525 0.0
C198 C 0.74512 0.74828 0.99138 0.0
C199 C 0.72105 0.73285 0.98541 0.0
C200 C 0.71235 0.70955 0.98359 0.0
C201 C 0.75386 0.77157 0.99355 0.0
C202 C 0.77794 0.78689 0.99990 0.0
C203 C 0.68641 0.60550 0.06253 0.0
C204 C 0.68831 0.59320 0.11793 0.0
C205 C 0.66409 0.58456 0.12006 0.0
C206 C 0.65065 0.56893 0.14738 0.0
C207 C 0.66147 0.56196 0.17242 0.0
C208 C 0.68569 0.57066 0.17031 0.0
C209 C 0.69913 0.58630 0.14303 0.0
C210 C 0.64808 0.54620 0.19958 0.0
C211 C 0.65903 0.53920 0.22430 0.0
O212 O 0.69715 0.60164 0.92182 0.0
O213 O 0.70128 0.60769 0.09025 0.0
O214 O 0.71915 0.67891 0.98705 0.0
H215 H 0.64372 0.54497 0.78827 0.0
H216 H 0.68418 0.53728 0.79558 0.0
H217 H 0.71019 0.55764 0.84701 0.0
H218 H 0.72041 0.58300 0.89929 0.0
H219 H 0.66132 0.58824 0.87790 0.0
H220 H 0.65111 0.56291 0.82568 0.0
H221 H 0.73087 0.61157 0.92858 0.0
H222 H 0.71103 0.58717 0.95069 0.0
H223 H 0.67750 0.57530 0.02656 0.0
H224 H 0.70067 0.57484 0.00894 0.0
H225 H 0.68028 0.57435 0.98075 0.0
H226 H 0.73797 0.63960 0.91947 0.0
H227 H 0.76060 0.65599 0.94817 0.0
H228 H 0.74232 0.66462 0.93474 0.0
H229 H 0.69775 0.64201 0.07677 0.0
H230 H 0.70270 0.66214 0.04567 0.0
H231 H 0.72554 0.66415 0.06927 0.0
H232 H 0.74428 0.68292 0.02092 0.0
H233 H 0.74956 0.68152 0.97588 0.0
H234 H 0.76319 0.71132 0.99644 0.0
H235 H 0.77835 0.75191 0.99990 0.0
H236 H 0.70966 0.73866 0.98242 0.0
H237 H 0.69452 0.69808 0.97931 0.0
H238 H 0.74254 0.77746 0.99067 0.0
H239 H 0.78922 0.78095 0.00253 0.0
H240 H 0.67659 0.61245 0.07018 0.0
H241 H 0.67527 0.58847 0.05607 0.0
H242 H 0.65612 0.58962 0.10130 0.0
H243 H 0.63271 0.56247 0.14900 0.0
H244 H 0.69365 0.56546 0.18888 0.0
H245 H 0.71704 0.59266 0.14128 0.0
H246 H 0.63013 0.53970 0.20136 0.0
H247 H 0.67698 0.54574 0.22242 0.0
O248 O 0.65936 0.38038 0.54252 0.0
Be249 Be 0.69747 0.37680 0.53915 0.0
Be250 Be 0.68234 0.40217 0.46481 0.0
O251 O 0.71081 0.36941 0.56093 0.0
Be252 Be 0.68235 0.40218 0.53908 0.0
O253 O 0.70856 0.38242 0.60822 0.0
O254 O 0.68103 0.41936 0.44308 0.0
Be255 Be 0.69746 0.37678 0.46488 0.0
O256 O 0.69067 0.41237 0.39582 0.0
O257 O 0.67201 0.35912 0.46125 0.0
O258 O 0.67202 0.35913 0.54258 0.0
O259 O 0.68105 0.41938 0.56079 0.0
O260 O 0.69071 0.41240 0.60814 0.0
H261 H 0.71351 0.40871 0.55859 0.0
H262 H 0.71349 0.40870 0.44556 0.0
O263 O 0.71079 0.36939 0.44322 0.0
O264 O 0.70852 0.38239 0.39590 0.0
H265 H 0.71556 0.37448 0.50209 0.0
H266 H 0.68676 0.42282 0.50196 0.0
O267 O 0.65935 0.38037 0.46120 0.0
O268 O 0.70100 0.39852 0.54827 0.0
O269 O 0.70098 0.39851 0.45578 0.0
O270 O 0.70378 0.37599 0.50204 0.0
O271 O 0.68389 0.40939 0.50195 0.0
C272 C 0.71360 0.37211 0.59242 0.0
C273 C 0.68415 0.42147 0.41162 0.0
C274 C 0.68418 0.42149 0.59229 0.0
C275 C 0.71356 0.37208 0.41175 0.0
C276 C 0.65673 0.36246 0.54596 0.0
C277 C 0.65672 0.36245 0.45775 0.0
C278 C 0.76036 0.36585 0.61915 0.0
C279 C 0.75709 0.36521 0.65699 0.0
C280 C 0.73780 0.36548 0.67123 0.0
C281 C 0.72178 0.36639 0.64766 0.0
C282 C 0.82094 0.36154 0.75180 0.0
C283 C 0.74434 0.36676 0.59558 0.0
C284 C 0.77309 0.36429 0.68061 0.0
C285 C 0.78906 0.36338 0.70429 0.0
C286 C 0.80501 0.36246 0.72803 0.0
C287 C 0.72505 0.36703 0.60983 0.0
H288 H 0.77464 0.36564 0.60860 0.0
H289 H 0.73538 0.36501 0.69924 0.0
H290 H 0.70750 0.36659 0.65822 0.0
H291 H 0.74676 0.36724 0.56757 0.0
C292 C 0.59917 0.32441 0.38820 0.0
C293 C 0.60392 0.30820 0.37537 0.0
C294 C 0.62309 0.30758 0.38944 0.0
C295 C 0.63749 0.32315 0.41634 0.0
C296 C 0.54652 0.24573 0.26781 0.0
C297 C 0.61357 0.33999 0.41510 0.0
C298 C 0.58954 0.29262 0.34848 0.0
C299 C 0.57518 0.27701 0.32158 0.0
C300 C 0.56084 0.26138 0.29470 0.0
C301 C 0.63274 0.33935 0.42917 0.0
H302 H 0.58498 0.32488 0.37779 0.0
H303 H 0.62662 0.29558 0.37994 0.0
H304 H 0.65167 0.32267 0.42675 0.0
H305 H 0.61005 0.35199 0.42460 0.0
C306 C 0.62725 0.31317 0.62287 0.0
C307 C 0.60420 0.30814 0.62795 0.0
C308 C 0.59547 0.31873 0.60622 0.0
C309 C 0.60978 0.33434 0.57941 0.0
C310 C 0.54665 0.24575 0.73499 0.0
C311 C 0.64155 0.32878 0.59606 0.0
C312 C 0.58987 0.29254 0.65473 0.0
C313 C 0.57549 0.27694 0.68150 0.0
C314 C 0.56109 0.26134 0.70825 0.0
C315 C 0.63282 0.33936 0.57433 0.0
H316 H 0.63371 0.30533 0.63896 0.0
H317 H 0.57841 0.31502 0.60997 0.0
H318 H 0.60330 0.34217 0.56333 0.0
H319 H 0.65862 0.33250 0.59231 0.0
C320 C 0.68446 0.45663 0.33231 0.0
C321 C 0.67053 0.46474 0.34533 0.0
C322 C 0.66110 0.45910 0.38058 0.0
C323 C 0.66559 0.44535 0.40283 0.0
C324 C 0.65237 0.51976 0.25682 0.0
C325 C 0.68895 0.44289 0.35456 0.0
C326 C 0.66603 0.47849 0.32313 0.0
C327 C 0.66149 0.49224 0.30098 0.0
C328 C 0.65694 0.50600 0.27888 0.0
C329 C 0.67951 0.43725 0.38982 0.0
H330 H 0.69144 0.46081 0.30621 0.0
H331 H 0.65079 0.46509 0.39023 0.0
H332 H 0.65861 0.44118 0.42893 0.0
H333 H 0.69925 0.43688 0.34493 0.0
C334 C 0.69189 0.46557 0.66196 0.0
C335 C 0.67063 0.46486 0.65839 0.0
C336 C 0.65385 0.45038 0.63265 0.0
C337 C 0.65830 0.43660 0.61048 0.0
C338 C 0.65242 0.51982 0.74680 0.0
C339 C 0.69635 0.45178 0.63979 0.0
C340 C 0.66614 0.47863 0.68053 0.0
C341 C 0.66160 0.49238 0.70264 0.0
C342 C 0.65702 0.50610 0.72473 0.0
C343 C 0.67956 0.43730 0.61405 0.0
H344 H 0.70432 0.47629 0.68101 0.0
H345 H 0.63811 0.44986 0.62999 0.0
H346 H 0.64587 0.42588 0.59144 0.0
H347 H 0.71209 0.45231 0.64243 0.0
C348 C 0.76114 0.36732 0.38530 0.0
C349 C 0.75705 0.36520 0.34757 0.0
C350 C 0.73695 0.36398 0.33330 0.0
C351 C 0.72093 0.36489 0.35673 0.0
C352 C 0.82093 0.36156 0.25331 0.0
C353 C 0.74512 0.36823 0.40874 0.0
C354 C 0.77306 0.36429 0.32409 0.0
C355 C 0.78903 0.36338 0.30055 0.0
C356 C 0.80499 0.36248 0.27695 0.0
C357 C 0.72501 0.36701 0.39445 0.0
H358 H 0.77603 0.36822 0.39587 0.0
H359 H 0.73391 0.36240 0.30537 0.0
H360 H 0.70604 0.36399 0.34615 0.0
H361 H 0.74814 0.36980 0.43666 0.0
C362 C 0.97172 0.13533 0.00150 0.0
N363 N 0.94914 0.13198 0.00149 0.0
N364 N 0.94642 0.15068 0.00162 0.0
C365 C 0.96628 0.17273 0.00175 0.0
N366 N 0.98891 0.17612 0.00176 0.0
N367 N 0.99164 0.15741 0.00163 0.0
C368 C 0.97441 0.11660 0.00137 0.0
C369 C 0.97735 0.09803 0.00124 0.0
C370 C 0.96338 0.19132 0.00187 0.0
C371 C 0.96035 0.20983 0.00199 0.0
C372 C 0.14304 0.07391 0.00100 0.0
N373 N 0.14523 0.05490 0.00127 0.0
N374 N 0.16759 0.05773 0.00130 0.0
C375 C 0.18778 0.07958 0.00106 0.0
N376 N 0.18564 0.09864 0.00010 0.0
N377 N 0.16326 0.09580 0.00010 0.0
C378 C 0.12065 0.07105 0.00010 0.0
C379 C 0.09837 0.06843 0.00010 0.0
C380 C 0.21007 0.08223 0.00109 0.0
C381 C 0.23231 0.08477 0.00112 0.0
C382 C 0.88663 0.90481 0.00110 0.0
N383 N 0.86508 0.90369 0.00110 0.0
N384 N 0.84389 0.88258 0.00114 0.0
C385 C 0.84423 0.86257 0.00118 0.0
N386 N 0.86579 0.86365 0.00118 0.0
N387 N 0.88701 0.88479 0.00115 0.0
C388 C 0.90782 0.92596 0.00107 0.0
C389 C 0.92913 0.94698 0.00105 0.0
C390 C 0.82294 0.84153 0.00121 0.0
C391 C 0.80159 0.82055 0.00125 0.0
