data_{}
_symmetry_space_group_name_H-M    P1
_symmetry_Int_Tables_number       1
_symmetry_cell_setting            triclinic
loop_
_symmetry_equiv_pos_as_xyz
'x, y, z'
_cell_length_a     31.627
_cell_length_b     47.962
_cell_length_c     72.342
_cell_angle_alpha  90.503
_cell_angle_beta   86.350
_cell_angle_gamma  90.341
loop_
_atom_site_label
_atom_site_type_symbol
_atom_site_fract_x
_atom_site_fract_y
_atom_site_fract_z
_atom_type_partial_charge
C0 C 0.24921 0.01946 0.73279 0.0
C1 C 0.24723 0.04521 0.72510 0.0
C2 C 0.25050 0.07195 0.73433 0.0
C3 C 0.25198 0.09521 0.74271 0.0
C4 C 0.25515 0.11970 0.75219 0.0
C5 C 0.25086 0.12176 0.77112 0.0
C6 C 0.25167 0.14874 0.77967 0.0
C7 C 0.25498 0.17065 0.76852 0.0
C8 C 0.25872 0.16797 0.75050 0.0
C9 C 0.25825 0.14201 0.74250 0.0
C10 C 0.24120 0.04714 0.70565 0.0
C11 C 0.23760 0.02213 0.69421 0.0
C12 C 0.23142 0.02324 0.67542 0.0
C13 C 0.22606 0.02313 0.65952 0.0
C14 C 0.22426 0.02057 0.63987 0.0
C15 C 0.21453 0.04643 0.63209 0.0
C16 C 0.21123 0.04642 0.61140 0.0
C17 C 0.21838 0.01831 0.60202 0.0
C18 C 0.22601 0.99421 0.61203 0.0
C19 C 0.23089 0.99633 0.63061 0.0
C20 C 0.24103 0.99684 0.70342 0.0
C21 C 0.24715 0.99530 0.72328 0.0
C22 C 0.24836 0.97009 0.73161 0.0
C23 C 0.25010 0.94769 0.73886 0.0
C24 C 0.25148 0.92076 0.74858 0.0
C25 C 0.25756 0.89725 0.73943 0.0
C26 C 0.25598 0.87172 0.74821 0.0
C27 C 0.25519 0.87190 0.76763 0.0
C28 C 0.25069 0.89734 0.77650 0.0
C29 C 0.25122 0.92109 0.76802 0.0
H30 H 0.25212 0.01852 0.74548 0.0
H31 H 0.24747 0.10590 0.77830 0.0
H32 H 0.24993 0.15083 0.79247 0.0
H33 H 0.26167 0.18370 0.74310 0.0
H34 H 0.26021 0.14054 0.72964 0.0
H35 H 0.23959 0.06463 0.70023 0.0
H36 H 0.21044 0.06254 0.63925 0.0
H37 H 0.20525 0.06243 0.60489 0.0
H38 H 0.22770 0.97701 0.60607 0.0
H39 H 0.23901 0.98071 0.63698 0.0
H40 H 0.23933 0.98031 0.69669 0.0
H41 H 0.26308 0.89777 0.72664 0.0
H42 H 0.25546 0.85512 0.74152 0.0
H43 H 0.24706 0.89748 0.78936 0.0
H44 H 0.25143 0.93784 0.77458 0.0
C45 C 0.03886 0.01220 0.29318 0.0
C46 C 0.04037 0.98644 0.30091 0.0
C47 C 0.03943 0.95972 0.29150 0.0
C48 C 0.03714 0.93645 0.28319 0.0
C49 C 0.03599 0.91197 0.27356 0.0
C50 C 0.02341 0.90985 0.25582 0.0
C51 C 0.02039 0.88287 0.24743 0.0
C52 C 0.02856 0.86099 0.25777 0.0
C53 C 0.04020 0.86371 0.27471 0.0
C54 C 0.04330 0.88969 0.28252 0.0
C55 C 0.04318 0.98450 0.32058 0.0
C56 C 0.04477 0.00951 0.33216 0.0
C57 C 0.04715 0.00838 0.35122 0.0
C58 C 0.04903 0.00849 0.36736 0.0
C59 C 0.05602 0.01106 0.38665 0.0
C60 C 0.05006 0.98515 0.39554 0.0
C61 C 0.05607 0.98517 0.41604 0.0
C62 C 0.06717 0.01334 0.42413 0.0
C63 C 0.07010 0.03747 0.41337 0.0
C64 C 0.06657 0.03535 0.39470 0.0
C65 C 0.04400 0.03481 0.32276 0.0
C66 C 0.04110 0.03636 0.30268 0.0
C67 C 0.03856 0.06156 0.29444 0.0
C68 C 0.03702 0.08396 0.28718 0.0
C69 C 0.03404 0.11088 0.27757 0.0
C70 C 0.04400 0.13445 0.28559 0.0
C71 C 0.03856 0.15996 0.27730 0.0
C72 C 0.02916 0.15974 0.25860 0.0
C73 C 0.02085 0.13426 0.25063 0.0
C74 C 0.02514 0.11053 0.25878 0.0
H75 H 0.03604 0.01314 0.28048 0.0
H76 H 0.01693 0.92568 0.24934 0.0
H77 H 0.01301 0.88075 0.23527 0.0
H78 H 0.04635 0.84801 0.28146 0.0
H79 H 0.05092 0.89119 0.29470 0.0
H80 H 0.04403 0.96701 0.32605 0.0
H81 H 0.04292 0.96902 0.38916 0.0
H82 H 0.05318 0.96914 0.42317 0.0
H83 H 0.07439 0.05469 0.41891 0.0
H84 H 0.07160 0.05102 0.38740 0.0
H85 H 0.04535 0.05134 0.32952 0.0
H86 H 0.05503 0.13397 0.29721 0.0
H87 H 0.04103 0.17657 0.28386 0.0
H88 H 0.01162 0.13409 0.23868 0.0
H89 H 0.02242 0.09377 0.25239 0.0
Cu90 Cu 0.18117 0.52402 0.91722 0.0
N91 N 0.12617 0.52131 0.93255 0.0
N92 N 0.18342 0.48771 0.90246 0.0
N93 N 0.22828 0.52231 0.93332 0.0
C94 C 0.09325 0.51851 0.93955 0.0
C95 C 0.18820 0.46808 0.89386 0.0
C96 C 0.25438 0.51931 0.94340 0.0
C97 C 0.18449 0.57636 0.89233 0.0
N98 N 0.18237 0.55624 0.90121 0.0
Cu99 Cu 0.10981 0.50766 0.10914 0.0
N100 N 0.06566 0.50991 0.09049 0.0
N101 N 0.10266 0.54394 0.12374 0.0
N102 N 0.16609 0.50985 0.09650 0.0
C103 C 0.03785 0.51245 0.08146 0.0
C104 C 0.10188 0.56358 0.13249 0.0
C105 C 0.19800 0.51311 0.08836 0.0
C106 C 0.09739 0.45527 0.13372 0.0
N107 N 0.10091 0.47539 0.12489 0.0
C108 C 0.89088 0.51755 0.99018 0.0
C109 C 0.88511 0.51765 0.00965 0.0
C110 C 0.84516 0.51457 0.01814 0.0
C111 C 0.80942 0.51148 0.00782 0.0
C112 C 0.81511 0.51094 0.98854 0.0
C113 C 0.85542 0.51409 0.97996 0.0
O114 O 0.78217 0.50723 0.97729 0.0
H115 H 0.75975 0.50660 0.98365 0.0
H116 H 0.84183 0.51453 0.03101 0.0
H117 H 0.85873 0.51387 0.96710 0.0
C118 C 0.39692 0.51907 0.03621 0.0
C119 C 0.40272 0.52081 0.01678 0.0
C120 C 0.44260 0.51827 0.00816 0.0
C121 C 0.47827 0.51414 0.01831 0.0
C122 C 0.47255 0.51198 0.03752 0.0
C123 C 0.43229 0.51458 0.04624 0.0
O124 O 0.50539 0.50716 0.04856 0.0
H125 H 0.52780 0.50697 0.04219 0.0
H126 H 0.44595 0.51932 0.99532 0.0
H127 H 0.42897 0.51326 0.05906 0.0
H128 H 0.05888 0.53713 0.95585 0.0
C129 C 0.00766 0.51272 0.94763 0.0
H130 H 0.06859 0.50508 0.95655 0.0
H131 H 0.99501 0.52722 0.94050 0.0
C132 C 0.05593 0.51940 0.94938 0.0
H133 H 0.00478 0.49518 0.94102 0.0
C134 C 0.98418 0.51088 0.96657 0.0
C135 C 0.93610 0.50593 0.96558 0.0
H136 H 0.98884 0.52796 0.97341 0.0
H137 H 0.99602 0.49565 0.97337 0.0
H138 H 0.92458 0.52159 0.95922 0.0
H139 H 0.93198 0.48941 0.95813 0.0
C140 C 0.91148 0.50256 0.98356 0.0
H141 H 0.92157 0.48618 0.98966 0.0
H142 H 0.88203 0.49939 0.98120 0.0
H143 H 0.99131 0.53015 0.07421 0.0
C144 C 0.99845 0.50447 0.05046 0.0
H145 H 0.98496 0.49846 0.07903 0.0
H146 H 0.01549 0.51765 0.04300 0.0
C147 C 0.00203 0.51145 0.07156 0.0
H148 H 0.00953 0.48595 0.04780 0.0
C149 C 0.95277 0.50583 0.04520 0.0
C150 C 0.94783 0.50070 0.02435 0.0
H151 H 0.94130 0.52395 0.04869 0.0
H152 H 0.93624 0.49188 0.05224 0.0
H153 H 0.96351 0.51516 0.01755 0.0
H154 H 0.96083 0.48303 0.02093 0.0
C155 C 0.90387 0.50037 0.01838 0.0
H156 H 0.88846 0.48516 0.02451 0.0
H157 H 0.90474 0.49680 0.00516 0.0
H158 H 0.29812 0.53608 0.95207 0.0
C159 C 0.28864 0.51121 0.97584 0.0
H160 H 0.30154 0.50412 0.94728 0.0
H161 H 0.27284 0.52508 0.98329 0.0
C162 C 0.28569 0.51781 0.95474 0.0
H163 H 0.27587 0.49312 0.97852 0.0
C164 C 0.33438 0.51121 0.98111 0.0
C165 C 0.33885 0.50640 0.00197 0.0
H166 H 0.34750 0.52886 0.97761 0.0
H167 H 0.34959 0.49659 0.97408 0.0
H168 H 0.32453 0.52150 0.00875 0.0
H169 H 0.32424 0.48926 0.00540 0.0
C170 C 0.38272 0.50479 0.00794 0.0
H171 H 0.39670 0.48897 0.00183 0.0
H172 H 0.38153 0.50155 0.02116 0.0
H173 H 0.22131 0.52168 0.06610 0.0
C174 C 0.27994 0.52222 0.07837 0.0
H175 H 0.22990 0.49350 0.07608 0.0
H176 H 0.28217 0.54241 0.07933 0.0
C177 C 0.23222 0.51357 0.07712 0.0
H178 H 0.29065 0.51435 0.08945 0.0
C179 C 0.30674 0.51217 0.06147 0.0
C180 C 0.35351 0.52153 0.06152 0.0
H181 H 0.29469 0.51904 0.05041 0.0
H182 H 0.30557 0.49188 0.06099 0.0
H183 H 0.35423 0.54174 0.06150 0.0
H184 H 0.36463 0.51544 0.07296 0.0
C185 C 0.38197 0.51132 0.04588 0.0
H186 H 0.38289 0.49113 0.04628 0.0
H187 H 0.41031 0.51832 0.04747 0.0
C188 C 0.54774 0.50056 0.02236 0.0
C189 C 0.58392 0.52068 0.01728 0.0
C190 C 0.62587 0.50538 0.01529 0.0
C191 C 0.73951 0.53190 0.00456 0.0
C192 C 0.70390 0.51155 0.00770 0.0
C193 C 0.66205 0.52555 0.01109 0.0
N194 N 0.50824 0.51490 0.02490 0.0
H195 H 0.49976 0.52065 0.03641 0.0
N196 N 0.78014 0.51842 0.00149 0.0
H197 H 0.79020 0.51525 0.98975 0.0
H198 H 0.54597 0.48670 0.01261 0.0
H199 H 0.55342 0.49099 0.03370 0.0
H200 H 0.57881 0.52976 0.00572 0.0
H201 H 0.58517 0.53491 0.02684 0.0
H202 H 0.63037 0.49560 0.02667 0.0
H203 H 0.62502 0.49168 0.00537 0.0
H204 H 0.73440 0.54322 0.99388 0.0
H205 H 0.74030 0.54423 0.01524 0.0
H206 H 0.70924 0.50009 0.01827 0.0
H207 H 0.70290 0.49939 0.99693 0.0
H208 H 0.65612 0.53626 0.00010 0.0
H209 H 0.66361 0.53845 0.02141 0.0
C210 C 0.25314 0.19738 0.77945 0.0
C211 C 0.24647 0.22439 0.79091 0.0
C212 C 0.23979 0.25139 0.80237 0.0
C213 C 0.27829 0.26792 0.80869 0.0
C214 C 0.27158 0.29492 0.82014 0.0
C215 C 0.22640 0.30541 0.82528 0.0
C216 C 0.18790 0.28888 0.81897 0.0
C217 C 0.19461 0.26188 0.80751 0.0
C218 C 0.21972 0.33243 0.83672 0.0
C219 C 0.17453 0.34293 0.84186 0.0
C220 C 0.16787 0.36995 0.85330 0.0
C221 C 0.20638 0.38645 0.85963 0.0
C222 C 0.25156 0.37594 0.85450 0.0
C223 C 0.25822 0.34893 0.84305 0.0
C224 C 0.19972 0.41346 0.87108 0.0
C225 C 0.19313 0.44048 0.88253 0.0
H226 H 0.31174 0.26015 0.80488 0.0
H227 H 0.30007 0.30716 0.82481 0.0
H228 H 0.15445 0.29665 0.82277 0.0
H229 H 0.16612 0.24964 0.80284 0.0
H230 H 0.14602 0.33071 0.83719 0.0
H231 H 0.13443 0.37774 0.85710 0.0
H232 H 0.28007 0.38816 0.85917 0.0
H233 H 0.29167 0.34114 0.83925 0.0
C234 C 0.25287 0.84341 0.77883 0.0
C235 C 0.24593 0.81653 0.79013 0.0
C236 C 0.23900 0.78964 0.80143 0.0
C237 C 0.27711 0.77146 0.80567 0.0
C238 C 0.27015 0.74458 0.81697 0.0
C239 C 0.22508 0.73587 0.82403 0.0
C240 C 0.18696 0.75405 0.81979 0.0
C241 C 0.19393 0.78092 0.80848 0.0
C242 C 0.21814 0.70900 0.83534 0.0
C243 C 0.17308 0.70029 0.84241 0.0
C244 C 0.16615 0.67342 0.85373 0.0
C245 C 0.20428 0.65524 0.85795 0.0
C246 C 0.24935 0.66394 0.85087 0.0
C247 C 0.25627 0.69082 0.83957 0.0
C248 C 0.19737 0.62836 0.86926 0.0
C249 C 0.19051 0.60146 0.88056 0.0
H250 H 0.31048 0.77790 0.80044 0.0
H251 H 0.29836 0.73112 0.82011 0.0
H252 H 0.15360 0.74761 0.82502 0.0
H253 H 0.16571 0.79438 0.80533 0.0
H254 H 0.14484 0.71374 0.83928 0.0
H255 H 0.13280 0.66697 0.85897 0.0
H256 H 0.27758 0.65049 0.85401 0.0
H257 H 0.28962 0.69727 0.83432 0.0
C258 C 0.03167 0.83416 0.24673 0.0
C259 C 0.03883 0.80717 0.23529 0.0
C260 C 0.04599 0.78019 0.22385 0.0
C261 C 0.09084 0.77254 0.21597 0.0
C262 C 0.09797 0.74555 0.20454 0.0
C263 C 0.06026 0.72621 0.20099 0.0
C264 C 0.01539 0.73386 0.20886 0.0
C265 C 0.00827 0.76085 0.22029 0.0
C266 C 0.06741 0.69921 0.18956 0.0
C267 C 0.02971 0.67986 0.18602 0.0
C268 C 0.03688 0.65287 0.17459 0.0
C269 C 0.08174 0.64524 0.16670 0.0
C270 C 0.11945 0.66460 0.17025 0.0
C271 C 0.11227 0.69159 0.18168 0.0
C272 C 0.08892 0.61825 0.15527 0.0
C273 C 0.09616 0.59127 0.14384 0.0
H274 H 0.11877 0.78686 0.21860 0.0
H275 H 0.13118 0.73988 0.19871 0.0
H276 H 0.98747 0.71955 0.20624 0.0
H277 H 0.97506 0.76653 0.22612 0.0
H278 H 0.99649 0.68551 0.19185 0.0
H279 H 0.00898 0.63852 0.17197 0.0
H280 H 0.15266 0.65895 0.16442 0.0
H281 H 0.14018 0.70593 0.18430 0.0
C282 C 0.03157 0.18823 0.24738 0.0
C283 C 0.03834 0.21511 0.23607 0.0
C284 C 0.04511 0.24201 0.22476 0.0
C285 C 0.09032 0.25253 0.21947 0.0
C286 C 0.09706 0.27942 0.20815 0.0
C287 C 0.05859 0.29578 0.20213 0.0
C288 C 0.01337 0.28526 0.20743 0.0
C289 C 0.00664 0.25838 0.21874 0.0
C290 C 0.06535 0.32266 0.19081 0.0
C291 C 0.02688 0.33902 0.18477 0.0
C292 C 0.03366 0.36589 0.17345 0.0
C293 C 0.07889 0.37642 0.16817 0.0
C294 C 0.11736 0.36006 0.17421 0.0
C295 C 0.11058 0.33318 0.18553 0.0
C296 C 0.08567 0.40330 0.15685 0.0
C297 C 0.09252 0.43018 0.14553 0.0
H298 H 0.11881 0.24042 0.22393 0.0
H299 H 0.13053 0.28720 0.20423 0.0
H300 H 0.98489 0.29737 0.20297 0.0
H301 H 0.97316 0.25059 0.22267 0.0
H302 H 0.99340 0.33124 0.18868 0.0
H303 H 0.00519 0.37801 0.16897 0.0
H304 H 0.15084 0.36784 0.17029 0.0
H305 H 0.13904 0.32106 0.19000 0.0
C306 C 0.11380 0.01508 0.48443 0.0
C307 C 0.06560 0.01503 0.48246 0.0
C308 C 0.04808 0.01473 0.46307 0.0
C309 C 0.07876 0.01445 0.44566 0.0
C310 C 0.12694 0.01448 0.44764 0.0
C311 C 0.14445 0.01479 0.46702 0.0
C312 C 0.13149 0.01545 0.50377 0.0
C313 C 0.14946 0.01582 0.52306 0.0
C314 C 0.16770 0.01621 0.54229 0.0
C315 C 0.13774 0.01664 0.55993 0.0
C316 C 0.15615 0.01711 0.57914 0.0
C317 C 0.20450 0.01712 0.58070 0.0
C318 C 0.23444 0.01669 0.56306 0.0
C319 C 0.21603 0.01623 0.54386 0.0
H320 H 0.04289 0.01526 0.49535 0.0
H321 H 0.01240 0.01471 0.46161 0.0
H322 H 0.14966 0.01426 0.43476 0.0
H323 H 0.18013 0.01482 0.46848 0.0
H324 H 0.10196 0.01663 0.55876 0.0
H325 H 0.13399 0.01739 0.59219 0.0
H326 H 0.27022 0.01670 0.56422 0.0
H327 H 0.23819 0.01588 0.53080 0.0
