data_{}
_symmetry_space_group_name_H-M    P1
_symmetry_Int_Tables_number       1
_symmetry_cell_setting            triclinic
loop_
_symmetry_equiv_pos_as_xyz
'x, y, z'
_cell_length_a     40.846
_cell_length_b     38.971
_cell_length_c     65.004
_cell_angle_alpha  89.347
_cell_angle_beta   91.475
_cell_angle_gamma  88.746
loop_
_atom_site_label
_atom_site_type_symbol
_atom_site_fract_x
_atom_site_fract_y
_atom_site_fract_z
_atom_type_partial_charge
O0 O 0.99476 0.99589 0.00472 0.0
H1 H 0.07468 0.03796 0.04567 0.0
H2 H 0.01738 0.01444 0.09313 0.0
H3 H 0.97793 0.02213 0.03501 0.0
H4 H 0.00774 0.98196 0.97109 0.0
H5 H 0.04004 0.03721 0.92323 0.0
H6 H 0.04148 0.07773 0.98073 0.0
C7 C 0.02668 0.03252 0.03722 0.0
C8 C 0.05367 0.03319 0.05079 0.0
C9 C 0.01991 0.01870 0.07884 0.0
C10 C 0.05024 0.02706 0.07125 0.0
C11 C 0.99625 0.02354 0.04423 0.0
C12 C 0.99330 0.01666 0.06514 0.0
C13 C 0.03116 0.03926 0.01531 0.0
C14 C 0.02227 0.02987 0.97900 0.0
C15 C 0.01619 0.00268 0.96577 0.0
C16 C 0.03581 0.03510 0.93749 0.0
C17 C 0.02224 0.00549 0.94535 0.0
C18 C 0.03645 0.05946 0.97173 0.0
C19 C 0.04311 0.06164 0.95088 0.0
C20 C 0.01547 0.02607 0.00010 0.0
O21 O 0.06347 0.05472 0.01166 0.0
Si22 Si 0.53546 0.53022 0.51436 0.0
C23 C 0.61030 0.55370 0.55599 0.0
C24 C 0.50712 0.60165 0.46907 0.0
C25 C 0.50931 0.57301 0.48211 0.0
C26 C 0.53544 0.56856 0.49678 0.0
C27 C 0.55984 0.59301 0.49701 0.0
C28 C 0.55816 0.62116 0.48357 0.0
C29 C 0.53183 0.62555 0.46996 0.0
C30 C 0.50573 0.44140 0.48435 0.0
C31 C 0.50774 0.46813 0.49826 0.0
C32 C 0.53176 0.49237 0.49695 0.0
C33 C 0.55443 0.48958 0.48114 0.0
C34 C 0.55306 0.46320 0.46721 0.0
C35 C 0.52900 0.43909 0.46868 0.0
H36 H 0.65607 0.53344 0.55729 0.0
C37 C 0.44771 0.56215 0.53949 0.0
C38 C 0.44211 0.53711 0.55413 0.0
C39 C 0.46427 0.51029 0.55736 0.0
C40 C 0.49229 0.50860 0.54602 0.0
C41 C 0.49886 0.53331 0.53111 0.0
H42 H 0.53059 0.64474 0.46130 0.0
C43 C 0.47586 0.55970 0.52812 0.0
H44 H 0.49331 0.55647 0.48117 0.0
H45 H 0.52809 0.42126 0.45934 0.0
H46 H 0.42327 0.53840 0.56183 0.0
C47 C 0.63571 0.53196 0.55062 0.0
H48 H 0.57750 0.59049 0.50627 0.0
H49 H 0.49260 0.46973 0.50867 0.0
H50 H 0.57066 0.50584 0.48005 0.0
C51 C 0.63105 0.50762 0.53518 0.0
C52 C 0.60087 0.50653 0.52478 0.0
C53 C 0.57443 0.52856 0.52986 0.0
C54 C 0.58024 0.55142 0.54560 0.0
H55 H 0.50720 0.49049 0.54836 0.0
H56 H 0.47952 0.57637 0.51813 0.0
H57 H 0.59808 0.49091 0.51420 0.0
H58 H 0.56321 0.56603 0.54943 0.0
C59 C 0.84449 0.41162 0.63825 0.0
C60 C 0.86096 0.37592 0.63626 0.0
C61 C 0.89603 0.36954 0.64492 0.0
C62 C 0.91288 0.33400 0.64299 0.0
C63 C 0.94802 0.32791 0.65166 0.0
C64 C 0.96621 0.35738 0.66218 0.0
C65 C 0.94932 0.39285 0.66416 0.0
C66 C 0.91424 0.39893 0.65551 0.0
C67 C 0.01133 0.31436 0.67055 0.0
C68 C 0.04417 0.31428 0.68253 0.0
C69 C 0.07581 0.32221 0.67127 0.0
C70 C 0.10737 0.32868 0.68390 0.0
C71 C 0.10827 0.32310 0.70741 0.0
C72 C 0.07723 0.31192 0.71838 0.0
C73 C 0.04512 0.30757 0.70592 0.0
C74 C 0.01340 0.29922 0.71707 0.0
C75 C 0.07518 0.32651 0.64765 0.0
C76 C 0.13991 0.32990 0.71996 0.0
C77 C 0.13801 0.34118 0.67315 0.0
C78 C 0.17211 0.39220 0.67042 0.0
C79 C 0.19447 0.36896 0.65762 0.0
C80 C 0.22748 0.38226 0.65033 0.0
C81 C 0.23806 0.41876 0.65586 0.0
C82 C 0.21554 0.44210 0.66854 0.0
C83 C 0.18253 0.42880 0.67582 0.0
C84 C 0.27124 0.43182 0.64871 0.0
C85 C 0.29367 0.40827 0.63613 0.0
C86 C 0.07762 0.30703 0.74190 0.0
C87 C 0.08789 0.26266 0.76848 0.0
C88 C 0.07905 0.29065 0.78403 0.0
C89 C 0.07199 0.28060 0.80642 0.0
C90 C 0.07369 0.24259 0.81316 0.0
C91 C 0.08261 0.21464 0.79760 0.0
C92 C 0.08973 0.22469 0.77523 0.0
C93 C 0.06633 0.23235 0.83546 0.0
C94 C 0.06783 0.19424 0.84198 0.0
O95 O 0.00010 0.35157 0.67090 0.0
O96 O 0.09323 0.27226 0.74634 0.0
O97 O 0.14032 0.37877 0.67812 0.0
H98 H 0.85830 0.43316 0.64612 0.0
H99 H 0.84725 0.35431 0.62840 0.0
H100 H 0.89938 0.31224 0.63516 0.0
H101 H 0.96054 0.30163 0.65028 0.0
H102 H 0.96281 0.41458 0.67204 0.0
H103 H 0.90174 0.42519 0.65693 0.0
H104 H 0.01464 0.30542 0.65408 0.0
H105 H 0.99315 0.29761 0.67882 0.0
H106 H 0.01770 0.30186 0.73437 0.0
H107 H 0.00599 0.27185 0.71347 0.0
H108 H 0.99308 0.31793 0.71160 0.0
H109 H 0.04900 0.33228 0.64190 0.0
H110 H 0.08444 0.30167 0.64048 0.0
H111 H 0.09163 0.34839 0.64302 0.0
H112 H 0.13529 0.32619 0.73705 0.0
H113 H 0.14765 0.35739 0.71692 0.0
H114 H 0.16017 0.31136 0.71509 0.0
H115 H 0.16061 0.32656 0.67952 0.0
H116 H 0.13549 0.33761 0.65580 0.0
H117 H 0.18665 0.34188 0.65361 0.0
H118 H 0.24412 0.36507 0.64088 0.0
H119 H 0.22333 0.46918 0.67256 0.0
H120 H 0.16586 0.44597 0.68529 0.0
H121 H 0.27919 0.45884 0.65275 0.0
H122 H 0.28564 0.38127 0.63211 0.0
H123 H 0.09222 0.32789 0.74987 0.0
H124 H 0.05136 0.30755 0.74747 0.0
H125 H 0.07754 0.31873 0.77893 0.0
H126 H 0.06537 0.30126 0.81797 0.0
H127 H 0.08384 0.18651 0.80264 0.0
H128 H 0.09613 0.20403 0.76365 0.0
H129 H 0.05975 0.25289 0.84710 0.0
H130 H 0.07441 0.17379 0.83030 0.0
C131 C 0.67170 0.82858 0.38434 0.0
C132 C 0.70164 0.84930 0.39124 0.0
C133 C 0.71198 0.88035 0.37828 0.0
C134 C 0.74195 0.90128 0.38493 0.0
C135 C 0.75214 0.93225 0.37182 0.0
C136 C 0.73239 0.94217 0.35209 0.0
C137 C 0.70239 0.92133 0.34548 0.0
C138 C 0.69221 0.89040 0.35857 0.0
C139 C 0.76847 0.99325 0.34953 0.0
C140 C 0.77066 0.02470 0.33528 0.0
C141 C 0.79255 0.02317 0.31642 0.0
C142 C 0.78973 0.05205 0.30011 0.0
C143 C 0.76821 0.08421 0.30388 0.0
C144 C 0.74873 0.08704 0.32378 0.0
C145 C 0.74992 0.05721 0.33947 0.0
C146 C 0.72835 0.05874 0.35853 0.0
C147 C 0.81505 0.99154 0.31304 0.0
C148 C 0.76532 0.11288 0.28740 0.0
C149 C 0.80803 0.04873 0.27988 0.0
C150 C 0.79740 0.04104 0.24282 0.0
C151 C 0.83448 0.04598 0.24098 0.0
C152 C 0.84971 0.04784 0.21959 0.0
C153 C 0.82782 0.04477 0.20009 0.0
C154 C 0.79074 0.03954 0.20195 0.0
C155 C 0.77552 0.03768 0.22334 0.0
C156 C 0.84311 0.04699 0.17874 0.0
C157 C 0.88017 0.05237 0.17701 0.0
C158 C 0.72657 0.11866 0.32750 0.0
C159 C 0.72812 0.17559 0.34313 0.0
C160 C 0.69155 0.17887 0.33696 0.0
C161 C 0.67015 0.20750 0.34617 0.0
C162 C 0.68537 0.23270 0.36158 0.0
C163 C 0.72197 0.22944 0.36770 0.0
C164 C 0.74337 0.20085 0.35846 0.0
C165 C 0.66403 0.26116 0.37100 0.0
C166 C 0.67945 0.28602 0.38652 0.0
O167 O 0.74194 0.97264 0.33930 0.0
O168 O 0.74873 0.14659 0.33493 0.0
O169 O 0.78237 0.04035 0.26373 0.0
H170 H 0.65730 0.83631 0.36969 0.0
H171 H 0.71611 0.84166 0.40587 0.0
H172 H 0.75657 0.89385 0.39953 0.0
H173 H 0.77427 0.94782 0.37672 0.0
H174 H 0.68774 0.92883 0.33090 0.0
H175 H 0.67005 0.87491 0.35367 0.0
H176 H 0.79266 0.97808 0.35035 0.0
H177 H 0.76090 0.00149 0.36553 0.0
H178 H 0.71031 0.08139 0.35684 0.0
H179 H 0.74440 0.06199 0.37296 0.0
H180 H 0.71428 0.03389 0.35982 0.0
H181 H 0.80601 0.96883 0.32236 0.0
H182 H 0.84107 0.99763 0.31840 0.0
H183 H 0.81502 0.98484 0.29603 0.0
H184 H 0.74707 0.13347 0.29245 0.0
H185 H 0.75642 0.10145 0.27224 0.0
H186 H 0.79030 0.12471 0.28524 0.0
H187 H 0.81984 0.07413 0.27592 0.0
H188 H 0.82745 0.02730 0.28113 0.0
H189 H 0.85063 0.04840 0.25544 0.0
H190 H 0.87716 0.05158 0.21819 0.0
H191 H 0.77457 0.03714 0.18751 0.0
H192 H 0.74805 0.03396 0.22477 0.0
H193 H 0.82703 0.04470 0.16424 0.0
H194 H 0.89618 0.05464 0.19154 0.0
H195 H 0.71282 0.12720 0.31277 0.0
H196 H 0.70839 0.11224 0.33992 0.0
H197 H 0.68032 0.15998 0.32569 0.0
H198 H 0.64303 0.20997 0.34167 0.0
H199 H 0.73316 0.24813 0.37911 0.0
H200 H 0.77042 0.19824 0.36306 0.0
H201 H 0.63691 0.26379 0.36653 0.0
H202 H 0.70658 0.28328 0.39095 0.0
C203 C 0.78612 0.67864 0.63340 0.0
C204 C 0.80325 0.65857 0.65132 0.0
C205 C 0.83809 0.66808 0.65843 0.0
C206 C 0.85560 0.64818 0.67630 0.0
C207 C 0.89051 0.65784 0.68326 0.0
C208 C 0.90782 0.68731 0.67232 0.0
C209 C 0.89027 0.70726 0.65451 0.0
C210 C 0.85542 0.69761 0.64756 0.0
C211 C 0.95333 0.67886 0.69867 0.0
C212 C 0.98572 0.69629 0.70398 0.0
C213 C 0.01764 0.68327 0.69443 0.0
C214 C 0.04862 0.70479 0.69656 0.0
C215 C 0.04873 0.73681 0.71025 0.0
C216 C 0.01747 0.74787 0.72137 0.0
C217 C 0.98591 0.72760 0.71820 0.0
C218 C 0.95392 0.74026 0.72791 0.0
C219 C 0.01782 0.65047 0.68138 0.0
C220 C 0.07979 0.75837 0.71216 0.0
C221 C 0.07945 0.69470 0.68484 0.0
C222 C 0.11279 0.71479 0.65631 0.0
C223 C 0.13601 0.68467 0.66266 0.0
C224 C 0.16907 0.68006 0.65207 0.0
C225 C 0.17883 0.70557 0.63517 0.0
C226 C 0.15546 0.73554 0.62871 0.0
C227 C 0.12241 0.74016 0.63930 0.0
C228 C 0.21205 0.70104 0.62477 0.0
C229 C 0.23534 0.67110 0.63138 0.0
C230 C 0.01707 0.78023 0.73469 0.0
C231 C 0.02709 0.79822 0.77029 0.0
C232 C 0.01721 0.83457 0.76259 0.0
C233 C 0.00948 0.86285 0.77818 0.0
C234 C 0.01156 0.85466 0.80141 0.0
C235 C 0.02152 0.81831 0.80908 0.0
C236 C 0.02930 0.79006 0.79350 0.0
C237 C 0.00354 0.88273 0.81706 0.0
C238 C 0.00543 0.87416 0.84024 0.0
O239 O 0.94179 0.69720 0.67916 0.0
O240 O 0.03309 0.77009 0.75506 0.0
O241 O 0.08095 0.71994 0.66715 0.0
H242 H 0.79927 0.70044 0.62547 0.0
H243 H 0.79018 0.63675 0.65928 0.0
H244 H 0.84276 0.62633 0.68436 0.0
H245 H 0.90352 0.64320 0.69650 0.0
H246 H 0.90311 0.72916 0.64650 0.0
H247 H 0.84244 0.71232 0.63436 0.0
H248 H 0.95740 0.65027 0.69588 0.0
H249 H 0.93513 0.68319 0.71145 0.0
H250 H 0.95753 0.76702 0.73438 0.0
H251 H 0.94709 0.72195 0.74084 0.0
H252 H 0.93349 0.74125 0.71562 0.0
H253 H 0.99177 0.64489 0.67586 0.0
H254 H 0.02776 0.62798 0.69123 0.0
H255 H 0.03407 0.65397 0.66756 0.0
H256 H 0.07459 0.78185 0.72196 0.0
H257 H 0.08718 0.76696 0.69615 0.0
H258 H 0.10054 0.74221 0.71964 0.0
H259 H 0.10204 0.69697 0.69535 0.0
H260 H 0.07763 0.66741 0.67883 0.0
H261 H 0.12879 0.66590 0.67524 0.0
H262 H 0.18634 0.65781 0.65678 0.0
H263 H 0.16265 0.75435 0.61613 0.0
H264 H 0.10511 0.76242 0.63461 0.0
H265 H 0.21941 0.71984 0.61223 0.0
H266 H 0.22791 0.65234 0.64392 0.0
H267 H 0.03103 0.80185 0.72717 0.0
H268 H 0.99060 0.78885 0.73712 0.0
H269 H 0.01542 0.84045 0.74538 0.0
H270 H 0.00209 0.88979 0.77253 0.0
H271 H 0.02303 0.81232 0.82629 0.0
H272 H 0.03647 0.76307 0.79914 0.0
H273 H 0.99619 0.90973 0.81151 0.0
H274 H 0.01278 0.84712 0.84572 0.0
C275 C 0.38374 0.77034 0.38162 0.0
C276 C 0.34981 0.78775 0.38383 0.0
C277 C 0.34357 0.82440 0.37533 0.0
C278 C 0.30979 0.84221 0.37747 0.0
C279 C 0.30381 0.87894 0.36896 0.0
C280 C 0.33163 0.89776 0.35837 0.0
C281 C 0.36534 0.87991 0.35618 0.0
C282 C 0.37131 0.84325 0.36467 0.0
C283 C 0.29048 0.94507 0.35036 0.0
C284 C 0.29011 0.97934 0.33850 0.0
C285 C 0.29818 0.01261 0.34984 0.0
C286 C 0.30404 0.04550 0.33729 0.0
C287 C 0.29791 0.04614 0.31381 0.0
C288 C 0.28676 0.01350 0.30277 0.0
C289 C 0.28292 0.98004 0.31513 0.0
C290 C 0.27445 0.94668 0.30390 0.0
C291 C 0.30309 0.01225 0.37344 0.0
C292 C 0.30409 0.07911 0.30135 0.0
C293 C 0.31645 0.07771 0.34811 0.0
C294 C 0.36533 0.11330 0.35074 0.0
C295 C 0.34369 0.13698 0.36373 0.0
C296 C 0.35675 0.17163 0.37108 0.0
C297 C 0.39142 0.18252 0.36543 0.0
C298 C 0.41317 0.15866 0.35257 0.0
C299 C 0.40010 0.12402 0.34522 0.0
C300 C 0.40424 0.21733 0.37264 0.0
C301 C 0.38229 0.24110 0.38542 0.0
C302 C 0.28129 0.01361 0.27927 0.0
C303 C 0.23809 0.02418 0.25292 0.0
C304 C 0.26423 0.01461 0.23721 0.0
C305 C 0.25385 0.00694 0.21483 0.0
C306 C 0.21736 0.00876 0.20826 0.0
C307 C 0.19127 0.01842 0.22398 0.0
C308 C 0.20164 0.02614 0.24633 0.0
C309 C 0.20680 0.00010 0.18597 0.0
C310 C 0.17023 0.00241 0.17962 0.0
O311 O 0.32592 0.93352 0.34980 0.0
O312 O 0.24803 0.03003 0.27504 0.0
O313 O 0.35214 0.07993 0.34298 0.0
H314 H 0.40407 0.78463 0.37370 0.0
H315 H 0.32942 0.77356 0.39173 0.0
H316 H 0.28924 0.82825 0.38535 0.0
H317 H 0.27883 0.89217 0.37049 0.0
H318 H 0.38585 0.89387 0.34825 0.0
H319 H 0.39626 0.83004 0.36309 0.0
H320 H 0.28252 0.94880 0.36688 0.0
H321 H 0.27415 0.92598 0.34209 0.0
H322 H 0.27639 0.95094 0.28661 0.0
H323 H 0.24844 0.93905 0.30759 0.0
H324 H 0.29241 0.92539 0.30921 0.0
H325 H 0.30869 0.98488 0.37908 0.0
H326 H 0.27967 0.02214 0.38076 0.0
H327 H 0.32418 0.02948 0.37804 0.0
H328 H 0.29994 0.07405 0.28425 0.0
H329 H 0.33045 0.08716 0.30429 0.0
H330 H 0.28665 0.10047 0.30637 0.0
H331 H 0.30236 0.10135 0.34189 0.0
H332 H 0.31362 0.07531 0.36546 0.0
H333 H 0.31796 0.12893 0.36783 0.0
H334 H 0.34073 0.18925 0.38067 0.0
H335 H 0.43889 0.16669 0.34845 0.0
H336 H 0.41610 0.10637 0.33561 0.0
H337 H 0.42991 0.22553 0.36852 0.0
H338 H 0.35664 0.23283 0.38952 0.0
H339 H 0.30097 0.02874 0.27126 0.0
H340 H 0.28149 0.98602 0.27360 0.0
H341 H 0.29118 0.01300 0.24218 0.0
H342 H 0.27313 0.99990 0.20316 0.0
H343 H 0.16426 0.01974 0.21907 0.0
H344 H 0.18236 0.03308 0.25803 0.0
H345 H 0.22597 0.99367 0.17422 0.0
H346 H 0.15114 0.00953 0.19142 0.0
C347 C 0.66264 0.48511 0.54607 0.0
C348 C 0.69032 0.47316 0.56119 0.0
C349 C 0.71803 0.46120 0.57631 0.0
C350 C 0.74566 0.44917 0.59143 0.0
C351 C 0.77324 0.43697 0.60658 0.0
C352 C 0.80075 0.42470 0.62173 0.0
C353 C 0.57398 0.45304 0.45864 0.0
C354 C 0.59142 0.42503 0.44619 0.0
C355 C 0.60886 0.39699 0.43373 0.0
C356 C 0.62620 0.36895 0.42125 0.0
C357 C 0.64341 0.34084 0.40873 0.0
C358 C 0.66053 0.31272 0.39619 0.0
C359 C 0.41785 0.58793 0.54538 0.0
C360 C 0.39047 0.60182 0.55905 0.0
C361 C 0.36306 0.61572 0.57274 0.0
C362 C 0.33562 0.62957 0.58638 0.0
C363 C 0.30803 0.64336 0.59997 0.0
C364 C 0.28041 0.65710 0.61351 0.0
C365 C 0.58424 0.65096 0.47536 0.0
C366 C 0.59845 0.67825 0.46101 0.0
C367 C 0.61267 0.70556 0.44665 0.0
C368 C 0.62678 0.73287 0.43229 0.0
C369 C 0.64075 0.76024 0.41786 0.0
C370 C 0.65463 0.78760 0.40343 0.0
C371 C 0.47931 0.41349 0.47378 0.0
C372 C 0.46361 0.38748 0.45909 0.0
C373 C 0.44790 0.36144 0.44439 0.0
C374 C 0.43229 0.33539 0.42969 0.0
C375 C 0.41682 0.30924 0.41496 0.0
C376 C 0.40144 0.28306 0.40024 0.0
C377 C 0.45262 0.49820 0.56530 0.0
C378 C 0.42569 0.48229 0.57826 0.0
C379 C 0.39874 0.46635 0.59123 0.0
C380 C 0.37190 0.45039 0.60423 0.0
C381 C 0.34514 0.43433 0.61730 0.0
C382 C 0.31846 0.41823 0.63039 0.0
C383 C 0.49309 0.60899 0.45731 0.0
C384 C 0.47283 0.63501 0.44398 0.0
C385 C 0.45255 0.66105 0.43064 0.0
C386 C 0.43237 0.68706 0.41727 0.0
C387 C 0.41229 0.71312 0.40383 0.0
C388 C 0.39230 0.73916 0.39036 0.0
C389 C 0.61790 0.57284 0.56626 0.0
C390 C 0.64519 0.59178 0.57796 0.0
C391 C 0.67250 0.61073 0.58966 0.0
C392 C 0.69977 0.62960 0.60141 0.0
C393 C 0.72704 0.64838 0.61325 0.0
C394 C 0.75428 0.66710 0.62512 0.0
C395 C 0.96717 0.00911 0.08085 0.0
C396 C 0.95269 0.02349 0.10025 0.0
C397 C 0.95516 0.05656 0.10586 0.0
C398 C 0.93552 0.00398 0.11235 0.0
H399 H 0.95248 0.01479 0.06930 0.0
H400 H 0.96853 0.98427 0.08211 0.0
H401 H 0.96746 0.07118 0.09788 0.0
H402 H 0.93343 0.98085 0.10929 0.0
C403 C 0.92307 0.04988 0.13502 0.0
C404 C 0.92059 0.01681 0.12940 0.0
C405 C 0.94024 0.06939 0.12292 0.0
C406 C 0.90859 0.06426 0.15441 0.0
H407 H 0.92328 0.05858 0.16596 0.0
H408 H 0.90723 0.08910 0.15316 0.0
H409 H 0.90830 0.00219 0.13738 0.0
H410 H 0.94233 0.09252 0.12597 0.0
C411 C 0.03173 0.07687 0.92910 0.0
C412 C 0.04241 0.10464 0.91440 0.0
C413 C 0.07263 0.11793 0.91485 0.0
C414 C 0.02240 0.11632 0.89966 0.0
H415 H 0.03961 0.05483 0.92425 0.0
H416 H 0.00796 0.07649 0.92889 0.0
H417 H 0.08745 0.11071 0.92520 0.0
H418 H 0.00113 0.10830 0.89885 0.0
C419 C 0.06228 0.15338 0.88588 0.0
C420 C 0.03206 0.14009 0.88543 0.0
C421 C 0.08228 0.14169 0.90062 0.0
C422 C 0.07296 0.18115 0.87118 0.0
H423 H 0.06508 0.20319 0.87603 0.0
H424 H 0.09672 0.18152 0.87139 0.0
H425 H 0.01723 0.14730 0.87508 0.0
H426 H 0.10355 0.14972 0.90143 0.0
C427 C 0.08303 0.01433 0.07895 0.0
C428 C 0.10051 0.01509 0.09977 0.0
C429 C 0.09056 0.03483 0.11543 0.0
C430 C 0.12614 0.99494 0.10376 0.0
H431 H 0.06441 0.99990 0.07988 0.0
H432 H 0.09780 0.00444 0.06905 0.0
H433 H 0.07275 0.04982 0.11320 0.0
H434 H 0.13424 0.98114 0.09339 0.0
C435 C 0.13138 0.01344 0.13852 0.0
C436 C 0.14133 0.99371 0.12285 0.0
C437 C 0.10574 0.03360 0.13452 0.0
C438 C 0.14885 0.01420 0.15933 0.0
H439 H 0.16748 0.02909 0.15840 0.0
H440 H 0.13408 0.02409 0.16924 0.0
H441 H 0.15913 0.97871 0.12508 0.0
H442 H 0.09765 0.04740 0.14490 0.0
C443 C 0.00010 0.97049 0.93733 0.0
C444 C 0.00369 0.95566 0.91604 0.0
C445 C 0.03146 0.95684 0.90529 0.0
C446 C 0.97931 0.93940 0.90725 0.0
H447 H 0.00976 0.95425 0.94734 0.0
H448 H 0.97719 0.97326 0.94017 0.0
H449 H 0.04920 0.96850 0.91081 0.0
H450 H 0.95948 0.93824 0.91392 0.0
C451 C 0.01009 0.92524 0.87771 0.0
C452 C 0.98232 0.92406 0.88847 0.0
C453 C 0.03446 0.94150 0.88650 0.0
C454 C 0.01347 0.91041 0.85642 0.0
H455 H 0.00402 0.92665 0.84641 0.0
H456 H 0.03659 0.90764 0.85358 0.0
H457 H 0.96458 0.91240 0.88294 0.0
H458 H 0.05430 0.94266 0.87983 0.0
