data_{}
_symmetry_space_group_name_H-M    P1
_symmetry_Int_Tables_number       1
_symmetry_cell_setting            triclinic
loop_
_symmetry_equiv_pos_as_xyz
'x, y, z'
_cell_length_a     69.008
_cell_length_b     34.669
_cell_length_c     75.513
_cell_angle_alpha  96.566
_cell_angle_beta   90.839
_cell_angle_gamma  106.675
loop_
_atom_site_label
_atom_site_type_symbol
_atom_site_fract_x
_atom_site_fract_y
_atom_site_fract_z
_atom_type_partial_charge
O0 O 0.11131 0.04455 0.66914 0.0
O1 O 0.09898 0.08915 0.61308 0.0
O2 O 0.09497 0.16792 0.66838 0.0
O3 O 0.08051 0.99990 0.66477 0.0
O4 O 0.13156 0.09698 0.61133 0.0
O5 O 0.12030 0.21297 0.65714 0.0
C6 C 0.10564 0.07180 0.65914 0.0
C7 C 0.10475 0.06518 0.64076 0.0
C8 C 0.10096 0.09511 0.63180 0.0
C9 C 0.09813 0.12991 0.64023 0.0
C10 C 0.09887 0.13470 0.65872 0.0
C11 C 0.10263 0.10591 0.66848 0.0
C12 C 0.09729 0.00974 0.67135 0.0
C13 C 0.11536 0.08972 0.60411 0.0
C14 C 0.10685 0.20592 0.66666 0.0
H15 H 0.10663 0.04122 0.63453 0.0
H16 H 0.09575 0.15010 0.63367 0.0
H17 H 0.10310 0.10959 0.68116 0.0
O18 O 0.11079 0.12436 0.39078 0.0
O19 O 0.09862 0.06552 0.44578 0.0
O20 O 0.09446 0.98198 0.39014 0.0
O21 O 0.08000 0.13319 0.39251 0.0
O22 O 0.13120 0.09560 0.45033 0.0
O23 O 0.11981 0.96642 0.40355 0.0
C24 C 0.10515 0.09053 0.40030 0.0
C25 C 0.10431 0.09615 0.41860 0.0
C26 C 0.10054 0.06182 0.42723 0.0
C27 C 0.09769 0.02372 0.41857 0.0
C28 C 0.09838 0.01976 0.40013 0.0
C29 C 0.10211 0.05290 0.39070 0.0
C30 C 0.09676 0.14286 0.38736 0.0
C31 C 0.11502 0.08402 0.45616 0.0
C32 C 0.10634 0.95781 0.39288 0.0
H33 H 0.10621 0.12232 0.42499 0.0
H34 H 0.09534 0.00010 0.42492 0.0
H35 H 0.10255 0.04975 0.37806 0.0
C36 C 0.10104 0.59211 0.76444 0.0
C37 C 0.06933 0.50197 0.72637 0.0
C38 C 0.07125 0.65360 0.74428 0.0
C39 C 0.06806 0.68806 0.73867 0.0
C40 C 0.06472 0.68934 0.72163 0.0
C41 C 0.06434 0.65512 0.70960 0.0
C42 C 0.06708 0.62129 0.71625 0.0
C43 C 0.02537 0.55857 0.74458 0.0
C44 C 0.00653 0.55391 0.75170 0.0
C45 C 0.00348 0.54517 0.76957 0.0
C46 C 0.02004 0.54047 0.77856 0.0
C47 C 0.03827 0.54560 0.77141 0.0
N48 N 0.06985 0.61929 0.73363 0.0
N49 N 0.04139 0.55408 0.75422 0.0
O50 O 0.08393 0.58931 0.77018 0.0
O51 O 0.10367 0.58235 0.74848 0.0
O52 O 0.07147 0.50229 0.74327 0.0
O53 O 0.06590 0.52998 0.71966 0.0
Zn54 Zn 0.07048 0.56688 0.74438 0.0
H55 H 0.07460 0.65440 0.75632 0.0
H56 H 0.06827 0.71026 0.74694 0.0
H57 H 0.06233 0.65516 0.69740 0.0
H58 H 0.06695 0.59882 0.70818 0.0
H59 H 0.02720 0.56493 0.73298 0.0
H60 H 0.99586 0.55653 0.74474 0.0
H61 H 0.01856 0.53345 0.79010 0.0
H62 H 0.04904 0.54328 0.77836 0.0
C63 C 0.10055 0.56486 0.29462 0.0
C64 C 0.06880 0.61803 0.32988 0.0
C65 C 0.07077 0.46867 0.31215 0.0
C66 C 0.06759 0.43049 0.31749 0.0
C67 C 0.06424 0.42533 0.33423 0.0
C68 C 0.06385 0.45910 0.34622 0.0
C69 C 0.06658 0.49611 0.33981 0.0
C70 C 0.02487 0.51022 0.30779 0.0
C71 C 0.00604 0.49293 0.29901 0.0
C72 C 0.00299 0.49811 0.28088 0.0
C73 C 0.01955 0.52211 0.27335 0.0
C74 C 0.03778 0.53823 0.28210 0.0
N75 N 0.06935 0.50134 0.32268 0.0
N76 N 0.04089 0.53337 0.29957 0.0
O77 O 0.08344 0.54772 0.28737 0.0
O78 O 0.10317 0.57768 0.31081 0.0
O79 O 0.07094 0.62020 0.31317 0.0
O80 O 0.06537 0.58603 0.33629 0.0
Zn81 Zn 0.06998 0.55448 0.31198 0.0
H82 H 0.07413 0.47178 0.30041 0.0
H83 H 0.06782 0.40855 0.30923 0.0
H84 H 0.06183 0.45671 0.35825 0.0
H85 H 0.06644 0.51842 0.34787 0.0
H86 H 0.02669 0.50599 0.31956 0.0
H87 H 0.99537 0.47787 0.30503 0.0
H88 H 0.01808 0.52740 0.26167 0.0
H89 H 0.04855 0.55309 0.27611 0.0
C90 C 0.78458 0.31951 0.12766 0.0
C91 C 0.77283 0.28388 0.11388 0.0
C92 C 0.76031 0.29180 0.09840 0.0
C93 C 0.74842 0.25646 0.08453 0.0
C94 C 0.73589 0.26470 0.06911 0.0
C95 C 0.73525 0.30822 0.06762 0.0
C96 C 0.74718 0.34353 0.08144 0.0
C97 C 0.75969 0.33531 0.09684 0.0
C98 C 0.71510 0.28010 0.03871 0.0
C99 C 0.70610 0.29732 0.02382 0.0
C100 C 0.68427 0.29992 0.02468 0.0
C101 C 0.67673 0.32425 0.01173 0.0
C102 C 0.69005 0.34158 0.99664 0.0
C103 C 0.71120 0.33549 0.99481 0.0
C104 C 0.71924 0.31339 0.00845 0.0
C105 C 0.74102 0.31024 0.00755 0.0
C106 C 0.67067 0.28122 0.03938 0.0
C107 C 0.68245 0.36618 0.98382 0.0
C108 C 0.65601 0.33184 0.01393 0.0
C109 C 0.64101 0.38724 0.02244 0.0
C110 C 0.62071 0.35484 0.01704 0.0
C111 C 0.60095 0.36703 0.01695 0.0
C112 C 0.60154 0.41158 0.02227 0.0
C113 C 0.62185 0.44393 0.02783 0.0
C114 C 0.64161 0.43173 0.02791 0.0
C115 C 0.58176 0.42368 0.02200 0.0
C116 C 0.56153 0.39119 0.01635 0.0
C117 C 0.72482 0.35344 0.98006 0.0
C118 C 0.73272 0.33568 0.94918 0.0
C119 C 0.74833 0.37793 0.95114 0.0
C120 C 0.76460 0.38823 0.93730 0.0
C121 C 0.76523 0.35618 0.92159 0.0
C122 C 0.74957 0.31398 0.91964 0.0
C123 C 0.73330 0.30372 0.93345 0.0
C124 C 0.78157 0.36616 0.90783 0.0
C125 C 0.78217 0.33377 0.89226 0.0
O126 O 0.72322 0.31664 0.05249 0.0
O127 O 0.71743 0.32487 0.96317 0.0
O128 O 0.66041 0.37553 0.02196 0.0
H129 H 0.78397 0.35158 0.12634 0.0
H130 H 0.77340 0.25176 0.11515 0.0
H131 H 0.74889 0.22425 0.08568 0.0
H132 H 0.72710 0.23862 0.05882 0.0
H133 H 0.74674 0.37575 0.08026 0.0
H134 H 0.76849 0.36142 0.10709 0.0
H135 H 0.70296 0.25549 0.04441 0.0
H136 H 0.72791 0.26790 0.03352 0.0
H137 H 0.74949 0.33052 0.99759 0.0
H138 H 0.74066 0.27747 0.00312 0.0
H139 H 0.74903 0.32058 0.02132 0.0
H140 H 0.68051 0.27702 0.05084 0.0
H141 H 0.66010 0.25041 0.03357 0.0
H142 H 0.66126 0.30192 0.04451 0.0
H143 H 0.69476 0.37823 0.97426 0.0
H144 H 0.67868 0.39268 0.99192 0.0
H145 H 0.66827 0.34595 0.97591 0.0
H146 H 0.64770 0.32696 0.00010 0.0
H147 H 0.64658 0.31087 0.02320 0.0
H148 H 0.62032 0.32190 0.01302 0.0
H149 H 0.58589 0.34311 0.01291 0.0
H150 H 0.62227 0.47688 0.03183 0.0
H151 H 0.65669 0.45565 0.03194 0.0
H152 H 0.58210 0.45662 0.02594 0.0
H153 H 0.56124 0.35828 0.01242 0.0
H154 H 0.72383 0.38504 0.97828 0.0
H155 H 0.74115 0.35487 0.98361 0.0
H156 H 0.74792 0.40144 0.96287 0.0
H157 H 0.77621 0.41946 0.93873 0.0
H158 H 0.75008 0.29032 0.90800 0.0
H159 H 0.72177 0.27241 0.93210 0.0
H160 H 0.79321 0.39736 0.90916 0.0
H161 H 0.77050 0.30260 0.89099 0.0
C162 C 0.32199 0.78568 0.92746 0.0
C163 C 0.31770 0.74550 0.93561 0.0
C164 C 0.33121 0.74224 0.95144 0.0
C165 C 0.32716 0.70221 0.95972 0.0
C166 C 0.34080 0.69923 0.97552 0.0
C167 C 0.35848 0.73624 0.98299 0.0
C168 C 0.36248 0.77626 0.97476 0.0
C169 C 0.34886 0.77924 0.95897 0.0
C170 C 0.36392 0.69486 0.00674 0.0
C171 C 0.37802 0.70176 0.02342 0.0
C172 C 0.39829 0.69177 0.02201 0.0
C173 C 0.41399 0.70604 0.03783 0.0
C174 C 0.40849 0.72567 0.05566 0.0
C175 C 0.38741 0.73206 0.05751 0.0
C176 C 0.37217 0.72015 0.04135 0.0
C177 C 0.35173 0.72963 0.04272 0.0
C178 C 0.40348 0.67071 0.00437 0.0
C179 C 0.42436 0.74016 0.07138 0.0
C180 C 0.43531 0.70125 0.03584 0.0
C181 C 0.47071 0.74233 0.03448 0.0
C182 C 0.47557 0.70171 0.03447 0.0
C183 C 0.49776 0.70101 0.03541 0.0
C184 C 0.51504 0.74094 0.03635 0.0
C185 C 0.51016 0.78155 0.03621 0.0
C186 C 0.48797 0.78224 0.03528 0.0
C187 C 0.53720 0.74012 0.03746 0.0
C188 C 0.54196 0.69941 0.03768 0.0
C189 C 0.38190 0.75248 0.07511 0.0
C190 C 0.36668 0.73560 0.10342 0.0
C191 C 0.36969 0.78142 0.10800 0.0
C192 C 0.35888 0.79689 0.12374 0.0
C193 C 0.34503 0.76647 0.13482 0.0
C194 C 0.34208 0.72067 0.13024 0.0
C195 C 0.35291 0.70522 0.11453 0.0
C196 C 0.33402 0.78171 0.15046 0.0
C197 C 0.32008 0.75100 0.16134 0.0
O198 O 0.37176 0.73377 0.99857 0.0
O199 O 0.37644 0.72027 0.08749 0.0
O200 O 0.44901 0.74312 0.03416 0.0
H201 H 0.33513 0.81284 0.93317 0.0
H202 H 0.30458 0.71828 0.92994 0.0
H203 H 0.31408 0.67483 0.95414 0.0
H204 H 0.33782 0.66967 0.98169 0.0
H205 H 0.37553 0.80366 0.98037 0.0
H206 H 0.35183 0.80882 0.95285 0.0
H207 H 0.36513 0.66776 0.99721 0.0
H208 H 0.34763 0.69056 0.01071 0.0
H209 H 0.35187 0.75005 0.05570 0.0
H210 H 0.33893 0.70020 0.04254 0.0
H211 H 0.34932 0.74579 0.03092 0.0
H212 H 0.39364 0.67489 0.99290 0.0
H213 H 0.40039 0.63691 0.00538 0.0
H214 H 0.42014 0.68427 0.00178 0.0
H215 H 0.41789 0.75572 0.08299 0.0
H216 H 0.43847 0.76252 0.06691 0.0
H217 H 0.42853 0.71306 0.07578 0.0
H218 H 0.44014 0.68967 0.04822 0.0
H219 H 0.43572 0.67954 0.02340 0.0
H220 H 0.46275 0.67219 0.03385 0.0
H221 H 0.50141 0.67097 0.03544 0.0
H222 H 0.52296 0.81108 0.03684 0.0
H223 H 0.48430 0.81229 0.03525 0.0
H224 H 0.55007 0.76958 0.03815 0.0
H225 H 0.52906 0.67000 0.03699 0.0
H226 H 0.39517 0.77892 0.08119 0.0
H227 H 0.36824 0.76368 0.07250 0.0
H228 H 0.37981 0.80380 0.09967 0.0
H229 H 0.36104 0.83079 0.12715 0.0
H230 H 0.33181 0.69822 0.13847 0.0
H231 H 0.35065 0.67131 0.11104 0.0
H232 H 0.33615 0.81559 0.15396 0.0
H233 H 0.31799 0.71715 0.15779 0.0
C234 C 0.94128 0.52692 0.79224 0.0
C235 C 0.94090 0.49116 0.80273 0.0
C236 C 0.95928 0.47439 0.80293 0.0
C237 C 0.97803 0.49336 0.79262 0.0
C238 C 0.97841 0.52910 0.78212 0.0
C239 C 0.96003 0.54589 0.78194 0.0
C240 C 0.92212 0.47211 0.81299 0.0
C241 C 0.90334 0.45300 0.82324 0.0
C242 C 0.88455 0.43383 0.83347 0.0
C243 C 0.86574 0.41460 0.84367 0.0
C244 C 0.84694 0.39534 0.85385 0.0
C245 C 0.84645 0.35907 0.86404 0.0
C246 C 0.82761 0.33968 0.87416 0.0
C247 C 0.80926 0.35657 0.87410 0.0
C248 C 0.80976 0.39286 0.86393 0.0
C249 C 0.82860 0.41225 0.85380 0.0
H250 H 0.92768 0.53935 0.79211 0.0
H251 H 0.95900 0.44794 0.81070 0.0
H252 H 0.99164 0.48094 0.79276 0.0
H253 H 0.96032 0.57236 0.77417 0.0
H254 H 0.86003 0.34656 0.86408 0.0
H255 H 0.82724 0.31282 0.88169 0.0
H256 H 0.79619 0.40538 0.86389 0.0
H257 H 0.82897 0.43911 0.84627 0.0
C258 C 0.95348 0.48605 0.24041 0.0
C259 C 0.94029 0.44173 0.23978 0.0
C260 C 0.94596 0.41360 0.25201 0.0
C261 C 0.96484 0.42978 0.26485 0.0
C262 C 0.97804 0.47408 0.26547 0.0
C263 C 0.97236 0.50223 0.25325 0.0
C264 C 0.92144 0.42552 0.22690 0.0
C265 C 0.90261 0.40927 0.21401 0.0
C266 C 0.88380 0.39297 0.20110 0.0
C267 C 0.86500 0.37663 0.18817 0.0
C268 C 0.84622 0.36027 0.17522 0.0
C269 C 0.83328 0.31572 0.17438 0.0
C270 C 0.81455 0.29930 0.16138 0.0
C271 C 0.80875 0.32744 0.14924 0.0
C272 C 0.82168 0.37200 0.15009 0.0
C273 C 0.84041 0.38842 0.16309 0.0
H274 H 0.94927 0.50689 0.23137 0.0
H275 H 0.93619 0.38080 0.25155 0.0
H276 H 0.96904 0.40895 0.27390 0.0
H277 H 0.98213 0.53504 0.25371 0.0
H278 H 0.83758 0.29489 0.18337 0.0
H279 H 0.80498 0.26632 0.16075 0.0
H280 H 0.81737 0.39284 0.14111 0.0
H281 H 0.84998 0.42141 0.16372 0.0
C282 C 0.15056 0.60821 0.81167 0.0
C283 C 0.16487 0.65109 0.81079 0.0
C284 C 0.16077 0.67672 0.79659 0.0
C285 C 0.14238 0.65946 0.78327 0.0
C286 C 0.12807 0.61658 0.78414 0.0
C287 C 0.13216 0.59095 0.79834 0.0
C288 C 0.18330 0.66830 0.82408 0.0
C289 C 0.20176 0.68551 0.83735 0.0
C290 C 0.22023 0.70272 0.85059 0.0
C291 C 0.23873 0.71992 0.86381 0.0
C292 C 0.25724 0.73711 0.87702 0.0
C293 C 0.27175 0.77968 0.87588 0.0
C294 C 0.29031 0.79680 0.88903 0.0
C295 C 0.29436 0.77137 0.90332 0.0
C296 C 0.27984 0.72882 0.90447 0.0
C297 C 0.26128 0.71169 0.89132 0.0
H298 H 0.15358 0.58925 0.82218 0.0
H299 H 0.17137 0.70846 0.79595 0.0
H300 H 0.13935 0.67843 0.77276 0.0
H301 H 0.12156 0.55922 0.79899 0.0
H302 H 0.26875 0.79850 0.86529 0.0
H303 H 0.30106 0.82831 0.88818 0.0
H304 H 0.28284 0.71000 0.91506 0.0
H305 H 0.25054 0.68018 0.89217 0.0
C306 C 0.16591 0.62729 0.27787 0.0
C307 C 0.16429 0.62076 0.25732 0.0
C308 C 0.14407 0.59622 0.24744 0.0
C309 C 0.12547 0.57817 0.25810 0.0
C310 C 0.12710 0.58467 0.27865 0.0
C311 C 0.14732 0.60924 0.28853 0.0
C312 C 0.18290 0.63871 0.24666 0.0
C313 C 0.20151 0.65660 0.23598 0.0
C314 C 0.22013 0.67441 0.22530 0.0
C315 C 0.23874 0.69215 0.21460 0.0
C316 C 0.25736 0.70985 0.20391 0.0
C317 C 0.25580 0.70260 0.18337 0.0
C318 C 0.27444 0.72014 0.17267 0.0
C319 C 0.29464 0.74495 0.18251 0.0
C320 C 0.29620 0.75224 0.20305 0.0
C321 C 0.27756 0.73469 0.21375 0.0
H322 H 0.18088 0.64548 0.28519 0.0
H323 H 0.14286 0.59141 0.23223 0.0
H324 H 0.11050 0.56000 0.25078 0.0
H325 H 0.14852 0.61407 0.30375 0.0
H326 H 0.24084 0.68422 0.17608 0.0
H327 H 0.27328 0.71475 0.15746 0.0
H328 H 0.31115 0.77063 0.21033 0.0
H329 H 0.27872 0.74007 0.22896 0.0
C330 C 0.55306 0.60437 0.02972 0.0
C331 C 0.56089 0.58414 0.01670 0.0
C332 C 0.55845 0.54299 0.01616 0.0
C333 C 0.54765 0.52097 0.02811 0.0
C334 C 0.53920 0.53953 0.04148 0.0
C335 C 0.54199 0.58158 0.04216 0.0
C336 C 0.54431 0.47549 0.02792 0.0
O337 O 0.53545 0.45589 0.03924 0.0
H338 H 0.56805 0.59821 0.00794 0.0
H339 H 0.56446 0.53022 0.00725 0.0
H340 H 0.53175 0.52480 0.04992 0.0
H341 H 0.53629 0.59459 0.05123 0.0
C342 C 0.10039 0.22706 0.67764 0.0
C343 C 0.09573 0.26693 0.68437 0.0
C344 C 0.09105 0.30679 0.69110 0.0
C345 C 0.10079 0.33115 0.70896 0.0
C346 C 0.09612 0.37102 0.71567 0.0
C347 C 0.08168 0.38648 0.70454 0.0
C348 C 0.07194 0.36212 0.68669 0.0
C349 C 0.07663 0.32227 0.67996 0.0
C350 C 0.07700 0.42634 0.71127 0.0
C351 C 0.07231 0.46619 0.71797 0.0
H352 H 0.11146 0.31968 0.71720 0.0
H353 H 0.10335 0.38908 0.72888 0.0
H354 H 0.06125 0.37358 0.67844 0.0
H355 H 0.06942 0.30424 0.66673 0.0
C356 C 0.10004 0.97774 0.67686 0.0
C357 C 0.09424 0.93539 0.68317 0.0
C358 C 0.08846 0.89303 0.68947 0.0
C359 C 0.07838 0.88651 0.70738 0.0
C360 C 0.07259 0.84415 0.71368 0.0
C361 C 0.07691 0.80831 0.70207 0.0
C362 C 0.08699 0.81481 0.68416 0.0
C363 C 0.09276 0.85717 0.67786 0.0
C364 C 0.07112 0.76594 0.70837 0.0
C365 C 0.06535 0.72357 0.71466 0.0
H366 H 0.07520 0.91306 0.71598 0.0
H367 H 0.06511 0.83932 0.72693 0.0
H368 H 0.09018 0.78827 0.67557 0.0
H369 H 0.10021 0.86199 0.66460 0.0
C370 C 0.09984 0.92912 0.38135 0.0
C371 C 0.09514 0.88379 0.37423 0.0
C372 C 0.09047 0.83849 0.36710 0.0
C373 C 0.08697 0.80653 0.38022 0.0
C374 C 0.08228 0.76123 0.37309 0.0
C375 C 0.08112 0.74789 0.35284 0.0
C376 C 0.08462 0.77984 0.33972 0.0
C377 C 0.08929 0.82514 0.34685 0.0
C378 C 0.07644 0.70258 0.34571 0.0
C379 C 0.07176 0.65729 0.33856 0.0
H380 H 0.08784 0.81641 0.39521 0.0
H381 H 0.07967 0.73757 0.38279 0.0
H382 H 0.08376 0.76996 0.32473 0.0
H383 H 0.09187 0.84880 0.33714 0.0
C384 C 0.09953 0.17805 0.38211 0.0
C385 C 0.09377 0.21373 0.37531 0.0
C386 C 0.08800 0.24936 0.36851 0.0
C387 C 0.08921 0.28786 0.38139 0.0
C388 C 0.08344 0.32350 0.37458 0.0
C389 C 0.07643 0.32062 0.35489 0.0
C390 C 0.07522 0.28214 0.34201 0.0
C391 C 0.08101 0.24651 0.34881 0.0
C392 C 0.07066 0.35628 0.34809 0.0
C393 C 0.06488 0.39189 0.34126 0.0
H394 H 0.09438 0.28997 0.39597 0.0
H395 H 0.08436 0.35202 0.38411 0.0
H396 H 0.07004 0.28002 0.32743 0.0
H397 H 0.08011 0.21801 0.33927 0.0
H398 H 0.09602 0.09415 0.49354 0.0
H399 H 0.09204 0.04609 0.48970 0.0
H400 H 0.08604 0.03150 0.51841 0.0
H401 H 0.08616 0.07776 0.52347 0.0
H402 H 0.11559 0.13211 0.51865 0.0
H403 H 0.13521 0.12212 0.51058 0.0
H404 H 0.10030 0.11323 0.58022 0.0
H405 H 0.09833 0.06581 0.57818 0.0
H406 H 0.13063 0.07742 0.56658 0.0
H407 H 0.13461 0.12548 0.57041 0.0
H408 H 0.14060 0.14006 0.54171 0.0
H409 H 0.14049 0.09381 0.53665 0.0
H410 H 0.11106 0.03946 0.54147 0.0
H411 H 0.09143 0.04945 0.54953 0.0
C412 C 0.11867 0.07831 0.47921 0.0
C413 C 0.10258 0.07219 0.49320 0.0
C414 C 0.09467 0.05907 0.52307 0.0
C415 C 0.12379 0.11286 0.51836 0.0
C416 C 0.10797 0.09325 0.58091 0.0
C417 C 0.12406 0.09938 0.56691 0.0
C418 C 0.13198 0.11250 0.53705 0.0
C419 C 0.10285 0.05871 0.54176 0.0
N420 N 0.11122 0.07207 0.51100 0.0
N421 N 0.11543 0.09950 0.54912 0.0
H422 H 0.12635 0.05834 0.47989 0.0
H423 H 0.12831 0.10576 0.48194 0.0
