data_{}
_symmetry_space_group_name_H-M    P1
_symmetry_Int_Tables_number       1
_symmetry_cell_setting            triclinic
loop_
_symmetry_equiv_pos_as_xyz
'x, y, z'
_cell_length_a     35.486
_cell_length_b     34.761
_cell_length_c     69.981
_cell_angle_alpha  89.879
_cell_angle_beta   84.812
_cell_angle_gamma  73.392
loop_
_atom_site_label
_atom_site_type_symbol
_atom_site_fract_x
_atom_site_fract_y
_atom_site_fract_z
_atom_type_partial_charge
C0 C 0.17534 0.99783 0.71381 0.0
C1 C 0.17320 0.03414 0.70587 0.0
C2 C 0.17659 0.06986 0.71529 0.0
C3 C 0.17827 0.10130 0.72387 0.0
C4 C 0.18157 0.13395 0.73354 0.0
C5 C 0.17827 0.13744 0.75316 0.0
C6 C 0.17933 0.17420 0.76193 0.0
C7 C 0.18200 0.20384 0.75032 0.0
C8 C 0.18482 0.19962 0.73164 0.0
C9 C 0.18409 0.16415 0.72345 0.0
C10 C 0.16685 0.03904 0.68593 0.0
C11 C 0.16307 0.00584 0.67425 0.0
C12 C 0.15661 0.00964 0.65499 0.0
C13 C 0.15102 0.01142 0.63870 0.0
C14 C 0.14861 0.00896 0.61846 0.0
C15 C 0.13923 0.04757 0.61061 0.0
C16 C 0.13538 0.04906 0.58933 0.0
C17 C 0.14172 0.00855 0.57954 0.0
C18 C 0.14921 0.97290 0.58974 0.0
C19 C 0.15446 0.97393 0.60880 0.0
C20 C 0.16663 0.96973 0.68372 0.0
C21 C 0.17308 0.96534 0.70408 0.0
C22 C 0.17453 0.92998 0.71269 0.0
C23 C 0.17643 0.89839 0.72017 0.0
C24 C 0.17809 0.86056 0.73021 0.0
C25 C 0.18343 0.82669 0.72067 0.0
C26 C 0.18229 0.79165 0.72980 0.0
C27 C 0.18228 0.79156 0.74986 0.0
C28 C 0.17840 0.82766 0.75907 0.0
C29 C 0.17857 0.86053 0.75027 0.0
H30 H 0.17853 0.99536 0.72685 0.0
H31 H 0.17538 0.11629 0.76067 0.0
H32 H 0.17818 0.17720 0.77518 0.0
H33 H 0.18730 0.22072 0.72392 0.0
H34 H 0.18545 0.16195 0.71013 0.0
H35 H 0.16514 0.06377 0.68035 0.0
H36 H 0.13568 0.07071 0.61806 0.0
H37 H 0.12956 0.07298 0.58271 0.0
H38 H 0.15058 0.94886 0.58359 0.0
H39 H 0.16228 0.94994 0.61523 0.0
H40 H 0.16480 0.94759 0.67683 0.0
H41 H 0.18810 0.82625 0.70736 0.0
H42 H 0.18156 0.76908 0.72294 0.0
H43 H 0.17549 0.82848 0.77242 0.0
H44 H 0.17900 0.88340 0.75701 0.0
C45 C 0.00136 0.04774 0.31702 0.0
C46 C 0.00309 0.01155 0.32500 0.0
C47 C 0.00184 0.97521 0.31536 0.0
C48 C 0.99990 0.94400 0.30687 0.0
C49 C 0.99790 0.91082 0.29700 0.0
C50 C 0.98543 0.91192 0.27899 0.0
C51 C 0.98228 0.87577 0.27044 0.0
C52 C 0.99033 0.84301 0.28095 0.0
C53 C 0.00190 0.84303 0.29817 0.0
C54 C 0.00510 0.87778 0.30611 0.0
C55 C 0.00653 0.00750 0.34524 0.0
C56 C 0.00849 0.04123 0.35710 0.0
C57 C 0.01150 0.03844 0.37671 0.0
C58 C 0.01391 0.03758 0.39332 0.0
C59 C 0.02124 0.03861 0.41306 0.0
C60 C 0.01606 0.00425 0.42241 0.0
C61 C 0.02251 0.00199 0.44342 0.0
C62 C 0.03319 0.03754 0.45147 0.0
C63 C 0.03548 0.07035 0.44027 0.0
C64 C 0.03140 0.06897 0.42109 0.0
C65 C 0.00737 0.07663 0.34739 0.0
C66 C 0.00383 0.08018 0.32673 0.0
C67 C 0.00111 0.11590 0.31825 0.0
C68 C 0.99990 0.14745 0.31075 0.0
C69 C 0.99617 0.18572 0.30087 0.0
C70 C 0.00579 0.21524 0.30888 0.0
C71 C 0.00010 0.25219 0.30042 0.0
C72 C 0.99082 0.25506 0.28134 0.0
C73 C 0.98274 0.22244 0.27334 0.0
C74 C 0.98709 0.18826 0.28168 0.0
H75 H 0.99819 0.05020 0.30398 0.0
H76 H 0.97911 0.93575 0.27242 0.0
H77 H 0.97489 0.87525 0.25806 0.0
H78 H 0.00792 0.81946 0.30502 0.0
H79 H 0.01272 0.87737 0.31851 0.0
H80 H 0.00756 0.98297 0.35088 0.0
H81 H 0.00913 0.98415 0.41602 0.0
H82 H 0.02012 0.98046 0.45087 0.0
H83 H 0.03970 0.09275 0.44586 0.0
H84 H 0.03579 0.08941 0.41342 0.0
H85 H 0.00890 0.09886 0.35430 0.0
H86 H 0.01656 0.21117 0.32062 0.0
H87 H 0.00293 0.27423 0.30710 0.0
H88 H 0.97363 0.22513 0.26122 0.0
H89 H 0.98429 0.16608 0.27518 0.0
H90 H 0.12054 0.53617 0.88030 0.0
H91 H 0.16336 0.44306 0.85539 0.0
H92 H 0.18999 0.52964 0.83986 0.0
H93 H 0.16338 0.55971 0.85536 0.0
H94 H 0.18998 0.45770 0.83988 0.0
H95 H 0.12053 0.49146 0.88032 0.0
H96 H 0.08937 0.58241 0.85465 0.0
H97 H 0.06987 0.56511 0.83815 0.0
H98 H 0.08936 0.46357 0.85468 0.0
H99 H 0.06986 0.49235 0.83817 0.0
H100 H 0.16012 0.50247 0.81347 0.0
H101 H 0.11319 0.51617 0.81293 0.0
C102 C 0.08752 0.52352 0.85963 0.0
C103 C 0.12252 0.51326 0.87235 0.0
C104 C 0.13165 0.47365 0.83394 0.0
C105 C 0.16519 0.46505 0.84752 0.0
C106 C 0.13166 0.54778 0.83392 0.0
C107 C 0.16520 0.53672 0.84750 0.0
C108 C 0.16290 0.50151 0.86044 0.0
C109 C 0.09170 0.55839 0.84655 0.0
C110 C 0.09169 0.48629 0.84657 0.0
C111 C 0.13463 0.50989 0.82156 0.0
H112 H 0.05270 0.55501 0.15086 0.0
H113 H 0.00985 0.48676 0.17582 0.0
H114 H 0.98325 0.58877 0.19129 0.0
H115 H 0.00987 0.60340 0.17579 0.0
H116 H 0.98324 0.51683 0.19131 0.0
H117 H 0.05269 0.51030 0.15087 0.0
H118 H 0.08388 0.58290 0.17649 0.0
H119 H 0.10337 0.55411 0.19301 0.0
H120 H 0.08386 0.46406 0.17652 0.0
H121 H 0.10336 0.48135 0.19303 0.0
H122 H 0.01311 0.54400 0.21770 0.0
H123 H 0.06004 0.53030 0.21824 0.0
C124 C 0.08572 0.52296 0.17155 0.0
C125 C 0.05071 0.53322 0.15883 0.0
C126 C 0.04157 0.49869 0.19726 0.0
C127 C 0.00803 0.50976 0.18368 0.0
C128 C 0.04159 0.57282 0.19724 0.0
C129 C 0.00804 0.58142 0.18366 0.0
C130 C 0.01034 0.54496 0.17073 0.0
C131 C 0.08154 0.56018 0.18461 0.0
C132 C 0.08153 0.48808 0.18463 0.0
C133 C 0.03861 0.53658 0.20961 0.0
C134 C 0.82863 0.61799 0.96169 0.0
C135 C 0.84925 0.58697 0.97264 0.0
C136 C 0.82987 0.57418 0.98847 0.0
C137 C 0.78987 0.59240 0.99334 0.0
C138 C 0.76924 0.62342 0.98239 0.0
C139 C 0.78862 0.63621 0.96657 0.0
C140 C 0.77112 0.57776 0.01184 0.0
C141 C 0.72714 0.58561 0.01198 0.0
C142 C 0.70063 0.62094 0.01992 0.0
C143 C 0.71204 0.55746 0.00407 0.0
C144 C 0.64541 0.59812 0.01313 0.0
C145 C 0.66010 0.62698 0.02103 0.0
C146 C 0.67223 0.56422 0.00446 0.0
C147 C 0.80267 0.62577 0.06319 0.0
C148 C 0.79682 0.64925 0.04710 0.0
C149 C 0.78759 0.63340 0.03040 0.0
C150 C 0.78250 0.59621 0.02976 0.0
C151 C 0.78842 0.57276 0.04582 0.0
C152 C 0.79829 0.58785 0.06238 0.0
H153 H 0.87602 0.57478 0.96939 0.0
H154 H 0.84368 0.55343 0.99580 0.0
H155 H 0.74245 0.63562 0.98566 0.0
H156 H 0.77483 0.65698 0.95924 0.0
H157 H 0.78273 0.54860 0.01219 0.0
H158 H 0.71036 0.64086 0.02458 0.0
H159 H 0.72909 0.53387 0.99848 0.0
H160 H 0.64291 0.65010 0.02698 0.0
H161 H 0.66265 0.54537 0.99865 0.0
H162 H 0.79903 0.67528 0.04741 0.0
H163 H 0.78489 0.64874 0.01941 0.0
H164 H 0.78579 0.54690 0.04551 0.0
H165 H 0.80200 0.57197 0.07315 0.0
C166 C 0.34931 0.41671 0.06954 0.0
C167 C 0.35530 0.38131 0.05897 0.0
C168 C 0.38352 0.37205 0.04327 0.0
C169 C 0.40576 0.39816 0.03814 0.0
C170 C 0.39977 0.43355 0.04872 0.0
C171 C 0.37155 0.44283 0.06442 0.0
C172 C 0.43503 0.38654 0.01979 0.0
C173 C 0.46828 0.40545 0.01950 0.0
C174 C 0.46578 0.44251 0.01116 0.0
C175 C 0.50244 0.38607 0.02768 0.0
C176 C 0.53173 0.43856 0.01809 0.0
C177 C 0.49741 0.45867 0.00992 0.0
C178 C 0.53282 0.40282 0.02716 0.0
C179 C 0.37465 0.41047 0.96804 0.0
C180 C 0.36079 0.43616 0.98385 0.0
C181 C 0.37969 0.42789 0.00010 0.0
C182 C 0.41234 0.39630 0.00172 0.0
C183 C 0.42611 0.37062 0.98593 0.0
C184 C 0.40721 0.37807 0.96924 0.0
H185 H 0.34042 0.36384 0.06239 0.0
H186 H 0.38752 0.34837 0.03619 0.0
H187 H 0.41466 0.45104 0.04529 0.0
H188 H 0.36752 0.46651 0.07150 0.0
H189 H 0.44680 0.35736 0.01977 0.0
H190 H 0.44240 0.45667 0.00631 0.0
H191 H 0.50467 0.36156 0.03354 0.0
H192 H 0.49569 0.48274 0.00370 0.0
H193 H 0.55517 0.38981 0.03315 0.0
H194 H 0.33913 0.45866 0.98327 0.0
H195 H 0.36960 0.44446 0.01150 0.0
H196 H 0.44802 0.34838 0.98651 0.0
H197 H 0.41679 0.36079 0.95866 0.0
C198 C 0.04654 0.53829 0.87420 0.0
C199 C 0.00948 0.55398 0.88839 0.0
C200 C 0.97239 0.56968 0.90260 0.0
C201 C 0.93533 0.58525 0.91680 0.0
C202 C 0.89820 0.60066 0.93101 0.0
C203 C 0.86108 0.61595 0.94521 0.0
C204 C 0.97639 0.55760 0.15563 0.0
C205 C 0.94624 0.57106 0.14070 0.0
C206 C 0.91606 0.58453 0.12575 0.0
C207 C 0.88601 0.59802 0.11078 0.0
C208 C 0.85606 0.61156 0.09574 0.0
C209 C 0.82621 0.62513 0.08067 0.0
C210 C 0.19670 0.48887 0.87560 0.0
C211 C 0.22659 0.47540 0.89066 0.0
C212 C 0.25650 0.46193 0.90572 0.0
C213 C 0.28647 0.44844 0.92073 0.0
C214 C 0.31663 0.43490 0.93568 0.0
C215 C 0.34684 0.42134 0.95058 0.0
C216 C 0.12671 0.50835 0.15698 0.0
C217 C 0.16383 0.49299 0.14279 0.0
C218 C 0.20098 0.47762 0.12858 0.0
C219 C 0.23806 0.46216 0.11439 0.0
C220 C 0.27515 0.44650 0.10017 0.0
C221 C 0.31218 0.43075 0.08597 0.0
C222 C 0.56924 0.47228 0.01844 0.0
C223 C 0.57167 0.51375 0.01165 0.0
C224 C 0.60189 0.53243 0.01942 0.0
C225 C 0.60421 0.57397 0.01269 0.0
H226 H 0.55109 0.53063 0.00010 0.0
H227 H 0.62252 0.51553 0.03018 0.0
H228 H 0.59142 0.45457 0.02835 0.0
H229 H 0.58177 0.59077 0.00267 0.0
C230 C 0.17959 0.24043 0.76146 0.0
C231 C 0.17143 0.27946 0.77349 0.0
C232 C 0.16327 0.31853 0.78554 0.0
C233 C 0.15499 0.35754 0.79758 0.0
C234 C 0.14652 0.39661 0.80966 0.0
C235 C 0.13795 0.43564 0.82173 0.0
C236 C 0.17958 0.75368 0.76139 0.0
C237 C 0.17142 0.71930 0.77342 0.0
C238 C 0.16324 0.68490 0.78546 0.0
C239 C 0.15497 0.65061 0.79751 0.0
C240 C 0.14651 0.61640 0.80960 0.0
C241 C 0.13795 0.58228 0.82170 0.0
C242 C 0.99365 0.80613 0.26973 0.0
C243 C 0.00183 0.76708 0.25771 0.0
C244 C 0.01001 0.72799 0.24568 0.0
C245 C 0.01829 0.68896 0.23365 0.0
C246 C 0.02675 0.64991 0.22156 0.0
C247 C 0.03529 0.61092 0.20946 0.0
C248 C 0.99365 0.29279 0.26977 0.0
C249 C 0.00180 0.32712 0.25771 0.0
C250 C 0.00996 0.36149 0.24563 0.0
C251 C 0.01823 0.39576 0.23357 0.0
C252 C 0.02669 0.43000 0.22151 0.0
C253 C 0.03527 0.46416 0.20946 0.0
C254 C 0.11383 0.04283 0.54915 0.0
C255 C 0.09780 0.03606 0.53216 0.0
C256 C 0.09639 0.99990 0.52480 0.0
H257 H 0.11343 0.06799 0.55380 0.0
C258 C 0.13124 0.96886 0.55189 0.0
C259 C 0.11356 0.96388 0.53522 0.0
H260 H 0.14338 0.94658 0.55879 0.0
H261 H 0.11300 0.93874 0.53104 0.0
C262 C 0.07613 0.06788 0.51826 0.0
O263 O 0.07330 0.10531 0.51894 0.0
H264 H 0.04354 0.08812 0.48144 0.0
H265 H 0.07874 0.94860 0.49558 0.0
H266 H 0.05403 0.97232 0.46628 0.0
C267 C 0.04739 0.03057 0.47207 0.0
C268 C 0.05103 0.06092 0.48413 0.0
C269 C 0.06770 0.04473 0.50099 0.0
C270 C 0.07831 0.00490 0.50608 0.0
C271 C 0.07256 0.97569 0.49277 0.0
C272 C 0.05736 0.99014 0.47542 0.0
C273 C 0.13034 0.00668 0.55795 0.0
