data_{}
_symmetry_space_group_name_H-M    P1
_symmetry_Int_Tables_number       1
_symmetry_cell_setting            triclinic
loop_
_symmetry_equiv_pos_as_xyz
'x, y, z'
_cell_length_a     39.757
_cell_length_b     53.455
_cell_length_c     81.781
_cell_angle_alpha  94.872
_cell_angle_beta   92.599
_cell_angle_gamma  104.032
loop_
_atom_site_label
_atom_site_type_symbol
_atom_site_fract_x
_atom_site_fract_y
_atom_site_fract_z
_atom_type_partial_charge
C0 C 0.10844 0.10762 0.58927 0.0
C1 C 0.13969 0.11150 0.60188 0.0
C2 C 0.13502 0.11704 0.62031 0.0
C3 C 0.16605 0.12104 0.63307 0.0
C4 C 0.16112 0.12665 0.65148 0.0
C5 C 0.12520 0.12828 0.65707 0.0
C6 C 0.09419 0.12420 0.64432 0.0
C7 C 0.09911 0.11860 0.62594 0.0
C8 C 0.15138 0.13297 0.68600 0.0
C9 C 0.13840 0.13505 0.70332 0.0
C10 C 0.14022 0.16184 0.71231 0.0
C11 C 0.12114 0.16368 0.72814 0.0
C12 C 0.10402 0.13893 0.73599 0.0
C13 C 0.10517 0.11221 0.72773 0.0
C14 C 0.12234 0.11028 0.71136 0.0
C15 C 0.12097 0.08350 0.70237 0.0
C16 C 0.15852 0.18663 0.70476 0.0
C17 C 0.08472 0.14095 0.75176 0.0
C18 C 0.11867 0.19020 0.73606 0.0
C19 C 0.07578 0.21583 0.74104 0.0
C20 C 0.10612 0.23538 0.75102 0.0
C21 C 0.09962 0.25948 0.76077 0.0
C22 C 0.06280 0.26399 0.76052 0.0
C23 C 0.03250 0.24452 0.75042 0.0
C24 C 0.03901 0.22041 0.74067 0.0
C25 C 0.05636 0.28799 0.77042 0.0
C26 C 0.08676 0.30730 0.78055 0.0
C27 C 0.08748 0.08733 0.73525 0.0
C28 C 0.09997 0.05764 0.75462 0.0
C29 C 0.06224 0.04194 0.75034 0.0
C30 C 0.05043 0.01415 0.75526 0.0
C31 C 0.07642 0.00214 0.76440 0.0
C32 C 0.11412 0.01790 0.76870 0.0
C33 C 0.12590 0.04568 0.76381 0.0
C34 C 0.06487 0.97430 0.76920 0.0
C35 C 0.09116 0.96241 0.77820 0.0
O36 O 0.12003 0.13347 0.67505 0.0
O37 O 0.11203 0.08433 0.74911 0.0
O38 O 0.08194 0.19182 0.73194 0.0
H39 H 0.08199 0.10885 0.59362 0.0
H40 H 0.16618 0.11029 0.59758 0.0
H41 H 0.19263 0.11987 0.62890 0.0
H42 H 0.18402 0.12959 0.66096 0.0
H43 H 0.06759 0.12531 0.64851 0.0
H44 H 0.07618 0.11562 0.61649 0.0
H45 H 0.17408 0.15009 0.68439 0.0
H46 H 0.15902 0.11386 0.68344 0.0
H47 H 0.10241 0.06792 0.70854 0.0
H48 H 0.14803 0.07978 0.70293 0.0
H49 H 0.11132 0.08304 0.68898 0.0
H50 H 0.16050 0.18192 0.69103 0.0
H51 H 0.18577 0.19433 0.71100 0.0
H52 H 0.14323 0.20199 0.70672 0.0
H53 H 0.07228 0.12068 0.75517 0.0
H54 H 0.06369 0.15168 0.74949 0.0
H55 H 0.10382 0.15209 0.76224 0.0
H56 H 0.12387 0.19136 0.74996 0.0
H57 H 0.13796 0.20648 0.73080 0.0
H58 H 0.13334 0.23194 0.75124 0.0
H59 H 0.12203 0.27396 0.76820 0.0
H60 H 0.00527 0.24792 0.75019 0.0
H61 H 0.01660 0.20590 0.73324 0.0
H62 H 0.02916 0.29144 0.77028 0.0
H63 H 0.11393 0.30379 0.78066 0.0
H64 H 0.06148 0.08871 0.74008 0.0
H65 H 0.08343 0.07009 0.72552 0.0
H66 H 0.04317 0.05081 0.74345 0.0
H67 H 0.02253 0.00244 0.75209 0.0
H68 H 0.13330 0.00895 0.77546 0.0
H69 H 0.15385 0.05733 0.76688 0.0
H70 H 0.03698 0.96250 0.76609 0.0
H71 H 0.11902 0.97427 0.78129 0.0
C72 C 0.10753 0.08095 0.44554 0.0
C73 C 0.13871 0.08859 0.43491 0.0
C74 C 0.13393 0.08130 0.41618 0.0
C75 C 0.16489 0.08873 0.40538 0.0
C76 C 0.15985 0.08128 0.38666 0.0
C77 C 0.12390 0.06640 0.37880 0.0
C78 C 0.09295 0.05906 0.38958 0.0
C79 C 0.09798 0.06649 0.40828 0.0
C80 C 0.14991 0.07134 0.35151 0.0
C81 C 0.13682 0.06444 0.33337 0.0
C82 C 0.13859 0.03832 0.32449 0.0
C83 C 0.11941 0.02942 0.30745 0.0
C84 C 0.10224 0.04785 0.29852 0.0
C85 C 0.10345 0.07500 0.30685 0.0
C86 C 0.12071 0.08328 0.32432 0.0
C87 C 0.11940 0.10956 0.33321 0.0
C88 C 0.15694 0.02029 0.33320 0.0
C89 C 0.08285 0.03869 0.28152 0.0
C90 C 0.11690 0.00198 0.29938 0.0
C91 C 0.07397 0.96053 0.29168 0.0
C92 C 0.10426 0.95216 0.28362 0.0
C93 C 0.09770 0.92565 0.27346 0.0
C94 C 0.06087 0.90756 0.27137 0.0
C95 C 0.03063 0.91586 0.27956 0.0
C96 C 0.03720 0.94238 0.28972 0.0
C97 C 0.05438 0.88117 0.26107 0.0
C98 C 0.08472 0.87307 0.25286 0.0
C99 C 0.08571 0.09335 0.29821 0.0
C100 C 0.09808 0.12763 0.27963 0.0
C101 C 0.06038 0.12942 0.28152 0.0
C102 C 0.04854 0.15284 0.27585 0.0
C103 C 0.07448 0.17442 0.26836 0.0
C104 C 0.11215 0.17256 0.26644 0.0
C105 C 0.12397 0.14914 0.27208 0.0
C106 C 0.06289 0.19800 0.26282 0.0
C107 C 0.08913 0.21957 0.25548 0.0
O108 O 0.11862 0.05929 0.36048 0.0
O109 O 0.11018 0.10539 0.28590 0.0
O110 O 0.08019 0.98682 0.30117 0.0
H111 H 0.08105 0.06996 0.43952 0.0
H112 H 0.16523 0.09957 0.44089 0.0
H113 H 0.19151 0.09971 0.41123 0.0
H114 H 0.18270 0.08679 0.37863 0.0
H115 H 0.06632 0.04812 0.38371 0.0
H116 H 0.07510 0.06102 0.41628 0.0
H117 H 0.17262 0.06260 0.35456 0.0
H118 H 0.15757 0.09327 0.35456 0.0
H119 H 0.10080 0.11829 0.32588 0.0
H120 H 0.14646 0.12327 0.33437 0.0
H121 H 0.10982 0.10648 0.34600 0.0
H122 H 0.15900 0.02575 0.34706 0.0
H123 H 0.18416 0.02263 0.32869 0.0
H124 H 0.14164 0.99990 0.33027 0.0
H125 H 0.07039 0.05437 0.27733 0.0
H126 H 0.06183 0.02020 0.28247 0.0
H127 H 0.10189 0.03458 0.27225 0.0
H128 H 0.12202 0.00273 0.28580 0.0
H129 H 0.13622 0.99283 0.30586 0.0
H130 H 0.13148 0.96564 0.28512 0.0
H131 H 0.12007 0.91943 0.26744 0.0
H132 H 0.00339 0.90242 0.27806 0.0
H133 H 0.01482 0.94863 0.29574 0.0
H134 H 0.02717 0.86769 0.25949 0.0
H135 H 0.11190 0.88660 0.25447 0.0
H136 H 0.05968 0.08237 0.29173 0.0
H137 H 0.08172 0.10911 0.30769 0.0
H138 H 0.04134 0.11351 0.28720 0.0
H139 H 0.02064 0.15425 0.27726 0.0
H140 H 0.13130 0.18858 0.26089 0.0
H141 H 0.15190 0.14780 0.27077 0.0
H142 H 0.03502 0.19951 0.26418 0.0
H143 H 0.11698 0.21799 0.25416 0.0
H144 H 0.89458 0.61421 0.91555 0.0
C145 C 0.92147 0.61923 0.89366 0.0
H146 H 0.94601 0.62605 0.90077 0.0
O147 O 0.03194 0.59507 0.86279 0.0
C148 C 0.03492 0.57026 0.85686 0.0
C149 C 0.06138 0.53501 0.86243 0.0
H150 H 0.07693 0.52696 0.87075 0.0
C151 C 0.05534 0.55909 0.86701 0.0
H152 H 0.06677 0.56921 0.87869 0.0
C153 C 0.01239 0.63397 0.86314 0.0
C154 C 0.01297 0.60724 0.85543 0.0
H155 H 0.99627 0.59910 0.84453 0.0
O156 O 0.05181 0.63608 0.88812 0.0
C157 C 0.04712 0.52136 0.84739 0.0
O158 O 0.00313 0.67585 0.85735 0.0
C159 C 0.02635 0.53229 0.83706 0.0
H160 H 0.01457 0.52197 0.82543 0.0
C161 C 0.02034 0.55656 0.84165 0.0
H162 H 0.00459 0.56403 0.83316 0.0
O163 O 0.94888 0.62171 0.86681 0.0
C164 C 0.04887 0.64654 0.87257 0.0
H165 H 0.05225 0.66777 0.87518 0.0
H166 H 0.06953 0.64385 0.86440 0.0
C167 C 0.07943 0.62480 0.89237 0.0
C168 C 0.11292 0.63155 0.88640 0.0
H169 H 0.11945 0.64640 0.87807 0.0
C170 C 0.13920 0.61999 0.89193 0.0
H171 H 0.16484 0.62602 0.88744 0.0
C172 C 0.13304 0.60206 0.90384 0.0
C173 C 0.09983 0.59586 0.90992 0.0
H174 H 0.09414 0.58240 0.91916 0.0
C175 C 0.07361 0.60713 0.90428 0.0
H176 H 0.04833 0.60210 0.90925 0.0
C177 C 0.00587 0.65144 0.84958 0.0
H178 H 0.98145 0.64209 0.84198 0.0
H179 H 0.02786 0.65442 0.84144 0.0
C180 C 0.00444 0.69707 0.84809 0.0
C181 C 0.01182 0.72147 0.85693 0.0
H182 H 0.01646 0.72328 0.87018 0.0
C183 C 0.01381 0.74370 0.84895 0.0
H184 H 0.01960 0.76190 0.85623 0.0
C185 C 0.00885 0.74252 0.83186 0.0
C186 C 0.99990 0.71789 0.82284 0.0
H187 H 0.99441 0.71616 0.80966 0.0
C188 C 0.99782 0.69526 0.83087 0.0
H189 H 0.99066 0.67667 0.82367 0.0
C190 C 0.98279 0.63086 0.87527 0.0
H191 H 0.98665 0.61677 0.88400 0.0
H192 H 0.98451 0.64985 0.88240 0.0
C193 C 0.91938 0.61671 0.87630 0.0
C194 C 0.88629 0.60843 0.86800 0.0
H195 H 0.88389 0.60628 0.85471 0.0
C196 C 0.85607 0.60287 0.87665 0.0
H197 H 0.83101 0.59716 0.86987 0.0
C198 C 0.85839 0.60448 0.89392 0.0
C199 C 0.89154 0.61266 0.90225 0.0
H200 H 0.89320 0.49531 0.10537 0.0
C201 C 0.91999 0.50020 0.12903 0.0
H202 H 0.94455 0.50246 0.12352 0.0
O203 O 0.03028 0.56514 0.16714 0.0
C204 C 0.03321 0.59104 0.17326 0.0
C205 C 0.05966 0.63607 0.16944 0.0
H206 H 0.07524 0.64988 0.16214 0.0
C207 C 0.05366 0.60977 0.16446 0.0
H208 H 0.06514 0.60389 0.15353 0.0
C209 C 0.01076 0.51902 0.16549 0.0
C210 C 0.01129 0.54595 0.17325 0.0
H211 H 0.99454 0.54791 0.18306 0.0
O212 O 0.05028 0.53151 0.14311 0.0
C213 C 0.04532 0.64442 0.18354 0.0
O214 O 0.00151 0.47372 0.17067 0.0
C215 C 0.02452 0.62581 0.19251 0.0
H216 H 0.01269 0.63176 0.20337 0.0
C217 C 0.01856 0.59933 0.18752 0.0
H218 H 0.00278 0.58603 0.19497 0.0
O219 O 0.94728 0.50782 0.15766 0.0
C220 C 0.04728 0.51994 0.15846 0.0
H221 H 0.05069 0.49997 0.15607 0.0
H222 H 0.06790 0.53026 0.16799 0.0
C223 C 0.07790 0.55300 0.14067 0.0
C224 C 0.11136 0.55862 0.14884 0.0
H225 H 0.11787 0.54617 0.15759 0.0
C226 C 0.13765 0.57990 0.14503 0.0
H227 H 0.16326 0.58334 0.15120 0.0
C228 C 0.13153 0.59557 0.13272 0.0
C229 C 0.09835 0.58949 0.12447 0.0
H230 H 0.09269 0.60087 0.11486 0.0
C231 C 0.07212 0.56853 0.12838 0.0
H232 H 0.04687 0.56423 0.12176 0.0
C233 C 0.00420 0.49912 0.17862 0.0
H234 H 0.97974 0.49944 0.18462 0.0
H235 H 0.02616 0.50426 0.18821 0.0
C236 C 0.00280 0.45297 0.18001 0.0
C237 C 0.01024 0.43131 0.17165 0.0
H238 H 0.01494 0.43123 0.15871 0.0
C239 C 0.01221 0.40981 0.17975 0.0
H240 H 0.01804 0.39376 0.17285 0.0
C241 C 0.00717 0.40913 0.19652 0.0
C242 C 0.99815 0.43043 0.20495 0.0
H243 H 0.99263 0.43012 0.21777 0.0
C244 C 0.99611 0.45231 0.19679 0.0
H245 H 0.98891 0.46825 0.20352 0.0
C246 C 0.98122 0.51120 0.15142 0.0
H247 H 0.98510 0.52673 0.14295 0.0
H248 H 0.98298 0.49286 0.14441 0.0
C249 C 0.91783 0.50193 0.14624 0.0
C250 C 0.88470 0.49797 0.15238 0.0
H251 H 0.88224 0.49921 0.16550 0.0
C252 C 0.85452 0.49236 0.14174 0.0
H253 H 0.82944 0.48881 0.14688 0.0
C254 C 0.85691 0.49164 0.12463 0.0
C255 C 0.89009 0.49571 0.11847 0.0
C256 C 0.60324 0.53494 0.00679 0.0
C257 C 0.58572 0.55255 0.00223 0.0
C258 C 0.54932 0.54670 0.00120 0.0
C259 C 0.53055 0.52248 0.00445 0.0
C260 C 0.54809 0.50475 0.00869 0.0
C261 C 0.58346 0.51056 0.01028 0.0
C262 C 0.66381 0.52367 0.02231 0.0
C263 C 0.67488 0.53427 0.03828 0.0
C264 C 0.68540 0.51955 0.04962 0.0
C265 C 0.68601 0.49376 0.04507 0.0
C266 C 0.67464 0.48311 0.02904 0.0
P267 P 0.65067 0.54560 0.00840 0.0
C268 C 0.66407 0.49842 0.01794 0.0
C269 C 0.66253 0.53354 0.98823 0.0
C270 C 0.69564 0.54529 0.98373 0.0
C271 C 0.70735 0.53758 0.96900 0.0
C272 C 0.68667 0.51807 0.95839 0.0
C273 C 0.65349 0.50610 0.96239 0.0
C274 C 0.64141 0.51457 0.97755 0.0
H275 H 0.59850 0.56908 0.99990 0.0
H276 H 0.53764 0.55936 0.99828 0.0
H277 H 0.53530 0.48789 0.01058 0.0
H278 H 0.59490 0.49806 0.01381 0.0
H279 H 0.67527 0.55186 0.04146 0.0
H280 H 0.69228 0.52692 0.06060 0.0
H281 H 0.67402 0.46553 0.02576 0.0
H282 H 0.65677 0.49115 0.00696 0.0
H283 H 0.71033 0.55880 0.99094 0.0
H284 H 0.73000 0.54588 0.96616 0.0
H285 H 0.63909 0.49248 0.95518 0.0
H286 H 0.61839 0.50694 0.98023 0.0
C287 C 0.44046 0.66499 0.02987 0.0
C288 C 0.47163 0.67316 0.03883 0.0
C289 C 0.49809 0.66024 0.03666 0.0
C290 C 0.49252 0.63844 0.02553 0.0
C291 C 0.46113 0.63002 0.01682 0.0
C292 C 0.43569 0.64296 0.01843 0.0
C293 C 0.38000 0.67647 0.01438 0.0
C294 C 0.38448 0.69526 0.00344 0.0
C295 C 0.36409 0.69130 0.98890 0.0
C296 C 0.33774 0.66846 0.98514 0.0
C297 C 0.33346 0.64953 0.99610 0.0
P298 P 0.40894 0.68439 0.03340 0.0
C299 C 0.35453 0.65407 0.01060 0.0
C300 C 0.38159 0.66718 0.04856 0.0
C301 C 0.36222 0.68138 0.05750 0.0
C302 C 0.34059 0.67035 0.06902 0.0
C303 C 0.33755 0.64503 0.07197 0.0
C304 C 0.35665 0.63039 0.06341 0.0
C305 C 0.37944 0.64217 0.05172 0.0
H306 H 0.47538 0.68788 0.04671 0.0
H307 H 0.51978 0.66650 0.04281 0.0
H308 H 0.45691 0.61472 0.00942 0.0
H309 H 0.41453 0.63710 0.01176 0.0
H310 H 0.40175 0.71105 0.00597 0.0
H311 H 0.36790 0.70414 0.98138 0.0
H312 H 0.31637 0.63365 0.99366 0.0
H313 H 0.35119 0.64123 0.01814 0.0
H314 H 0.36396 0.69893 0.05560 0.0
H315 H 0.32764 0.68039 0.07501 0.0
H316 H 0.35455 0.61282 0.06529 0.0
H317 H 0.39332 0.63251 0.04608 0.0
H318 H 0.84973 0.60246 0.91455 0.0
H319 H 0.78008 0.58806 0.90807 0.0
H320 H 0.80358 0.54542 0.92390 0.0
H321 H 0.80615 0.58025 0.93232 0.0
H322 H 0.68956 0.50936 0.93562 0.0
H323 H 0.75920 0.52376 0.94210 0.0
H324 H 0.73571 0.56640 0.92627 0.0
H325 H 0.73314 0.53157 0.91785 0.0
C326 C 0.83367 0.58970 0.90837 0.0
C327 C 0.79540 0.57635 0.90884 0.0
C328 C 0.78901 0.56305 0.92495 0.0
C329 C 0.70562 0.52212 0.94180 0.0
C330 C 0.74388 0.53547 0.94133 0.0
C331 C 0.75028 0.54877 0.92522 0.0
H332 H 0.83693 0.47273 0.11084 0.0
H333 H 0.78037 0.49229 0.11218 0.0
H334 H 0.80629 0.49491 0.07797 0.0
H335 H 0.78868 0.46570 0.08970 0.0
H336 H 0.70015 0.50666 0.05821 0.0
H337 H 0.75671 0.48710 0.05686 0.0
H338 H 0.73078 0.48448 0.09108 0.0
H339 H 0.74840 0.51369 0.07934 0.0
C340 C 0.83130 0.48803 0.10960 0.0
C341 C 0.79899 0.49684 0.10475 0.0
C342 C 0.78466 0.48490 0.08710 0.0
C343 C 0.70577 0.49136 0.05944 0.0
C344 C 0.73808 0.48255 0.06429 0.0
C345 C 0.75242 0.49449 0.08195 0.0
H346 H 0.15071 0.60753 0.92263 0.0
H347 H 0.21660 0.60216 0.92300 0.0
H348 H 0.21686 0.65588 0.93820 0.0
H349 H 0.19630 0.62273 0.94508 0.0
H350 H 0.32868 0.66503 0.96150 0.0
H351 H 0.26279 0.67040 0.96113 0.0
H352 H 0.26253 0.61668 0.94593 0.0
H353 H 0.28309 0.64984 0.93905 0.0
C354 C 0.17115 0.61491 0.91839 0.0
C355 C 0.20966 0.61847 0.92281 0.0
C356 C 0.22000 0.63411 0.93992 0.0
C357 C 0.30824 0.65765 0.96574 0.0
C358 C 0.26973 0.65409 0.96132 0.0
C359 C 0.25939 0.63845 0.94421 0.0
H360 H 0.14951 0.61108 0.11915 0.0
H361 H 0.21749 0.62834 0.12932 0.0
H362 H 0.21031 0.59389 0.09734 0.0
H363 H 0.19823 0.62605 0.10199 0.0
H364 H 0.32763 0.62723 0.09028 0.0
H365 H 0.25965 0.60997 0.08011 0.0
H366 H 0.26682 0.64442 0.11209 0.0
H367 H 0.27891 0.61227 0.10744 0.0
C368 C 0.16757 0.60440 0.12221 0.0
C369 C 0.20697 0.61226 0.12240 0.0
C370 C 0.21852 0.61555 0.10467 0.0
C371 C 0.30956 0.63391 0.08722 0.0
C372 C 0.27016 0.62605 0.08703 0.0
C373 C 0.25861 0.62276 0.10476 0.0
C374 C 0.51615 0.60055 0.01558 0.0
C375 C 0.50281 0.57411 0.01655 0.0
C376 C 0.51776 0.55636 0.00789 0.0
C377 C 0.54620 0.56521 0.99857 0.0
C378 C 0.56026 0.59169 0.99757 0.0
C379 C 0.54436 0.60907 0.00626 0.0
C380 C 0.59083 0.60181 0.98722 0.0
C381 C 0.57825 0.61574 0.97344 0.0
C382 C 0.61935 0.62108 0.99789 0.0
C383 C 0.60599 0.58026 0.97977 0.0
H384 H 0.48417 0.56833 0.02289 0.0
H385 H 0.55599 0.55319 0.99290 0.0
H386 H 0.55297 0.62678 0.00576 0.0
H387 H 0.55788 0.60453 0.96762 0.0
H388 H 0.59623 0.62017 0.96598 0.0
H389 H 0.57272 0.63124 0.97810 0.0
H390 H 0.63844 0.62758 0.99136 0.0
H391 H 0.62717 0.61269 0.00671 0.0
H392 H 0.61051 0.63520 0.00235 0.0
H393 H 0.58824 0.56778 0.97303 0.0
H394 H 0.61470 0.57196 0.98842 0.0
H395 H 0.62465 0.58743 0.97317 0.0
C396 C 0.08034 0.33946 0.79221 0.0
C397 C 0.07693 0.36579 0.80022 0.0
C398 C 0.07356 0.39212 0.80824 0.0
C399 C 0.06108 0.41108 0.79769 0.0
C400 C 0.05769 0.43740 0.80571 0.0
C401 C 0.06683 0.44478 0.82427 0.0
C402 C 0.07930 0.42582 0.83482 0.0
C403 C 0.08266 0.39949 0.82681 0.0
C404 C 0.06344 0.47111 0.83229 0.0
C405 C 0.06007 0.49743 0.84032 0.0
H406 H 0.05436 0.40563 0.78394 0.0
H407 H 0.04842 0.45143 0.79790 0.0
H408 H 0.08605 0.43128 0.84857 0.0
H409 H 0.09188 0.38544 0.83462 0.0
C410 C 0.07622 0.92664 0.78549 0.0
C411 C 0.06466 0.89986 0.79197 0.0
C412 C 0.05312 0.87307 0.79842 0.0
C413 C 0.06166 0.86981 0.81655 0.0
C414 C 0.05010 0.84302 0.82301 0.0
C415 C 0.03005 0.81949 0.81132 0.0
C416 C 0.02151 0.82274 0.79319 0.0
C417 C 0.03303 0.84954 0.78674 0.0
C418 C 0.01849 0.79270 0.81778 0.0
C419 C 0.00693 0.76590 0.82422 0.0
H420 H 0.07653 0.88722 0.82520 0.0
H421 H 0.05639 0.84061 0.83643 0.0
H422 H 0.00665 0.80532 0.78455 0.0
H423 H 0.02670 0.85195 0.77332 0.0
C424 C 0.07829 0.83856 0.24080 0.0
C425 C 0.07491 0.81097 0.23258 0.0
C426 C 0.07157 0.78340 0.22436 0.0
C427 C 0.05642 0.75975 0.23364 0.0
C428 C 0.05306 0.73218 0.22541 0.0
C429 C 0.06491 0.72825 0.20791 0.0
C430 C 0.08006 0.75189 0.19863 0.0
C431 C 0.08338 0.77947 0.20685 0.0
C432 C 0.06156 0.70067 0.19968 0.0
C433 C 0.05823 0.67311 0.19144 0.0
H434 H 0.04768 0.76266 0.24660 0.0
H435 H 0.04181 0.71467 0.23227 0.0
H436 H 0.08882 0.74898 0.18567 0.0
H437 H 0.09459 0.79697 0.19998 0.0
C438 C 0.07421 0.24981 0.24725 0.0
C439 C 0.06268 0.27233 0.24003 0.0
C440 C 0.05118 0.29488 0.23282 0.0
C441 C 0.04513 0.29464 0.21407 0.0
C442 C 0.03361 0.31718 0.20687 0.0
C443 C 0.02821 0.33997 0.21841 0.0
C444 C 0.03426 0.34020 0.23716 0.0
C445 C 0.04574 0.31765 0.24437 0.0
C446 C 0.01670 0.36251 0.21120 0.0
C447 C 0.00520 0.38506 0.20402 0.0
H448 H 0.04917 0.27779 0.20552 0.0
H449 H 0.02909 0.31699 0.19299 0.0
H450 H 0.03024 0.35707 0.24571 0.0
H451 H 0.05021 0.31782 0.25825 0.0
C452 C 0.11092 0.08776 0.47026 0.0
C453 C 0.11122 0.09064 0.48916 0.0
C454 C 0.11151 0.09351 0.50808 0.0
C455 C 0.11170 0.09636 0.52697 0.0
C456 C 0.11171 0.09919 0.54588 0.0
C457 C 0.11162 0.10201 0.56476 0.0
