data_{}
_symmetry_space_group_name_H-M    P1
_symmetry_Int_Tables_number       1
_symmetry_cell_setting            triclinic
loop_
_symmetry_equiv_pos_as_xyz
'x, y, z'
_cell_length_a     82.133
_cell_length_b     81.881
_cell_length_c     41.982
_cell_angle_alpha  90.544
_cell_angle_beta   90.543
_cell_angle_gamma  98.114
loop_
_atom_site_label
_atom_site_type_symbol
_atom_site_fract_x
_atom_site_fract_y
_atom_site_fract_z
_atom_type_partial_charge
H0 H 0.98230 0.48118 0.05611 0.0
H1 H 0.99888 0.48695 0.07472 0.0
C2 C 0.99440 0.50620 0.97522 0.0
C3 C 0.01947 0.51570 0.94025 0.0
C4 C 0.02826 0.49791 0.05148 0.0
C5 C 0.99071 0.49050 0.06052 0.0
C6 C 0.98842 0.50008 0.00453 0.0
H7 H 0.03783 0.49394 0.04245 0.0
C8 C 0.99868 0.49692 0.02979 0.0
H9 H 0.97710 0.49804 0.00731 0.0
H10 H 0.98669 0.51616 0.93365 0.0
H11 H 0.97236 0.51226 0.95831 0.0
H12 H 0.02349 0.49004 0.06711 0.0
H13 H 0.03308 0.50816 0.99345 0.0
C14 C 0.01150 0.50928 0.97097 0.0
C15 C 0.01579 0.50001 0.02554 0.0
C16 C 0.98192 0.50830 0.94928 0.0
C17 C 0.02176 0.50612 0.99622 0.0
H18 H 0.02788 0.52502 0.94465 0.0
H19 H 0.01130 0.51925 0.92604 0.0
H20 H 0.52699 0.02603 0.94465 0.0
H21 H 0.52124 0.00940 0.92604 0.0
C22 C 0.50205 0.01389 0.02554 0.0
C23 C 0.49259 0.98873 0.06052 0.0
C24 C 0.51034 0.97992 0.94928 0.0
C25 C 0.51770 0.01759 0.94025 0.0
C26 C 0.50814 0.01988 0.99623 0.0
H27 H 0.51430 0.97033 0.95831 0.0
C28 C 0.51130 0.00959 0.97097 0.0
H29 H 0.51017 0.03124 0.99345 0.0
H30 H 0.49211 0.02161 0.06711 0.0
H31 H 0.49599 0.03599 0.04245 0.0
H32 H 0.51818 0.98471 0.93365 0.0
H33 H 0.50012 0.97508 0.00732 0.0
C34 C 0.49899 0.99673 0.02979 0.0
C35 C 0.50823 0.99243 0.97522 0.0
C36 C 0.49995 0.02640 0.05148 0.0
C37 C 0.50215 0.98644 0.00454 0.0
H38 H 0.48330 0.98029 0.05611 0.0
H39 H 0.48904 0.99692 0.07472 0.0
H40 H 0.50782 0.54116 0.45196 0.0
H41 H 0.50359 0.56885 0.44919 0.0
H42 H 0.48304 0.56450 0.53693 0.0
H43 H 0.48547 0.53674 0.53705 0.0
H44 H 0.52506 0.52537 0.49045 0.0
H45 H 0.47035 0.52081 0.46190 0.0
H46 H 0.44223 0.52168 0.46194 0.0
H47 H 0.43685 0.49583 0.54034 0.0
H48 H 0.46497 0.49401 0.54258 0.0
H49 H 0.50237 0.46515 0.54875 0.0
H50 H 0.50660 0.43747 0.55151 0.0
H51 H 0.52715 0.44181 0.46377 0.0
H52 H 0.52472 0.46957 0.46365 0.0
H53 H 0.48513 0.48094 0.51026 0.0
H54 H 0.53985 0.48550 0.53880 0.0
H55 H 0.56797 0.48463 0.53876 0.0
H56 H 0.57335 0.51048 0.46036 0.0
H57 H 0.54523 0.51231 0.45813 0.0
C58 C 0.49733 0.53644 0.49478 0.0
C59 C 0.50258 0.54595 0.46902 0.0
C60 C 0.50032 0.56252 0.46749 0.0
C61 C 0.49324 0.56962 0.49317 0.0
C62 C 0.48790 0.55975 0.51931 0.0
C63 C 0.48961 0.54338 0.51968 0.0
C64 C 0.50069 0.51914 0.49652 0.0
C65 C 0.51684 0.51630 0.49468 0.0
C66 C 0.48846 0.50571 0.50196 0.0
C67 C 0.47058 0.50712 0.50219 0.0
C68 C 0.46371 0.51550 0.47823 0.0
C69 C 0.44680 0.51594 0.47863 0.0
C70 C 0.43690 0.50918 0.49987 0.0
C71 C 0.44381 0.50089 0.52420 0.0
C72 C 0.46055 0.49973 0.52574 0.0
C73 C 0.51286 0.46988 0.50592 0.0
C74 C 0.50762 0.46036 0.53169 0.0
C75 C 0.50987 0.44379 0.53321 0.0
C76 C 0.51696 0.43669 0.50753 0.0
C77 C 0.52230 0.44656 0.48140 0.0
C78 C 0.52059 0.46293 0.48103 0.0
C79 C 0.50951 0.48717 0.50419 0.0
C80 C 0.49335 0.49002 0.50602 0.0
C81 C 0.52174 0.50060 0.49875 0.0
C82 C 0.53961 0.49920 0.49852 0.0
C83 C 0.54648 0.49082 0.52247 0.0
C84 C 0.56340 0.49038 0.52208 0.0
C85 C 0.57329 0.49714 0.50084 0.0
C86 C 0.56638 0.50542 0.47650 0.0
C87 C 0.54965 0.50658 0.47497 0.0
C88 C 0.11314 0.54513 0.28753 0.0
C89 C 0.11435 0.52957 0.30724 0.0
C90 C 0.12609 0.53057 0.33622 0.0
C91 C 0.12748 0.51510 0.35612 0.0
C92 C 0.13930 0.51622 0.38503 0.0
C93 C 0.14970 0.53280 0.39392 0.0
C94 C 0.14826 0.54826 0.37410 0.0
C95 C 0.13647 0.54714 0.34523 0.0
C96 C 0.15919 0.51856 0.44190 0.0
C97 C 0.17017 0.52356 0.47113 0.0
C98 C 0.18861 0.52211 0.47005 0.0
C99 C 0.20006 0.53008 0.49681 0.0
C100 C 0.19283 0.53764 0.52632 0.0
C101 C 0.17414 0.53763 0.52865 0.0
C102 C 0.16280 0.53060 0.50098 0.0
C103 C 0.14428 0.53183 0.50207 0.0
C104 C 0.19575 0.51397 0.44104 0.0
C105 C 0.20439 0.54571 0.55289 0.0
C106 C 0.21876 0.53073 0.49401 0.0
C107 C 0.24378 0.55063 0.48669 0.0
C108 C 0.25288 0.53567 0.49186 0.0
C109 C 0.27180 0.53810 0.49383 0.0
C110 C 0.28156 0.55549 0.49062 0.0
C111 C 0.27244 0.57043 0.48519 0.0
C112 C 0.25353 0.56800 0.48322 0.0
C113 C 0.30046 0.55787 0.49292 0.0
C114 C 0.30948 0.54288 0.49850 0.0
C115 C 0.16682 0.54548 0.55766 0.0
C116 C 0.15573 0.53833 0.61053 0.0
C117 C 0.15263 0.55640 0.61300 0.0
C118 C 0.14142 0.56164 0.63924 0.0
C119 C 0.13331 0.54879 0.66288 0.0
C120 C 0.13645 0.53073 0.66043 0.0
C121 C 0.14768 0.52549 0.63423 0.0
C122 C 0.12197 0.55392 0.68896 0.0
C123 C 0.11381 0.54094 0.71228 0.0
O124 O 0.16115 0.53406 0.42235 0.0
O125 O 0.16603 0.53300 0.58393 0.0
O126 O 0.22526 0.54832 0.48582 0.0
H127 H 0.12092 0.55732 0.29448 0.0
H128 H 0.10661 0.51735 0.30037 0.0
H129 H 0.11979 0.50283 0.34946 0.0
H130 H 0.14034 0.50480 0.39983 0.0
H131 H 0.15593 0.56053 0.38083 0.0
H132 H 0.13542 0.55857 0.33051 0.0
H133 H 0.16362 0.50796 0.42820 0.0
H134 H 0.14586 0.51512 0.44944 0.0
H135 H 0.14179 0.54018 0.52281 0.0
H136 H 0.13703 0.51903 0.50535 0.0
H137 H 0.14036 0.53726 0.47878 0.0
H138 H 0.18698 0.51393 0.41982 0.0
H139 H 0.19726 0.50071 0.44711 0.0
H140 H 0.20825 0.52106 0.43482 0.0
H141 H 0.19690 0.55135 0.57172 0.0
H142 H 0.21366 0.55578 0.54214 0.0
H143 H 0.21122 0.53602 0.56426 0.0
H144 H 0.22417 0.52736 0.51777 0.0
H145 H 0.22186 0.52197 0.47442 0.0
H146 H 0.24563 0.52282 0.49437 0.0
H147 H 0.27857 0.52705 0.49773 0.0
H148 H 0.27968 0.58329 0.48270 0.0
H149 H 0.24673 0.57905 0.47934 0.0
H150 H 0.30776 0.57071 0.49054 0.0
H151 H 0.30215 0.53005 0.50086 0.0
H152 H 0.17479 0.55743 0.56536 0.0
H153 H 0.15387 0.54803 0.55142 0.0
H154 H 0.15855 0.56584 0.59528 0.0
H155 H 0.13908 0.57501 0.64110 0.0
H156 H 0.13042 0.52124 0.67796 0.0
H157 H 0.14994 0.51211 0.63223 0.0
H158 H 0.11959 0.56728 0.69098 0.0
H159 H 0.11621 0.52759 0.71017 0.0
C160 C 0.54561 0.11138 0.28750 0.0
C161 C 0.56113 0.11699 0.30787 0.0
C162 C 0.56013 0.12848 0.33681 0.0
C163 C 0.57555 0.13424 0.35736 0.0
C164 C 0.57443 0.14578 0.38623 0.0
C165 C 0.55791 0.15153 0.39441 0.0
C166 C 0.54250 0.14572 0.37394 0.0
C167 C 0.54361 0.13421 0.34512 0.0
C168 C 0.57210 0.16507 0.44300 0.0
C169 C 0.56712 0.17468 0.47202 0.0
C170 C 0.56857 0.19358 0.47099 0.0
C171 C 0.56062 0.20281 0.49742 0.0
C172 C 0.55309 0.19343 0.52661 0.0
C173 C 0.55309 0.17468 0.52894 0.0
C174 C 0.56010 0.16529 0.50157 0.0
C175 C 0.55887 0.14637 0.50260 0.0
C176 C 0.57668 0.20304 0.44233 0.0
C177 C 0.54504 0.20275 0.55283 0.0
C178 C 0.55998 0.22139 0.49460 0.0
C179 C 0.54014 0.24086 0.48643 0.0
C180 C 0.55505 0.25422 0.49223 0.0
C181 C 0.55262 0.27250 0.49410 0.0
C182 C 0.53529 0.27739 0.49016 0.0
C183 C 0.52040 0.26402 0.48409 0.0
C184 C 0.52282 0.24573 0.48223 0.0
C185 C 0.53291 0.29567 0.49236 0.0
C186 C 0.54787 0.30895 0.49857 0.0
C187 C 0.54527 0.16512 0.55761 0.0
C188 C 0.55240 0.15601 0.61079 0.0
C189 C 0.53438 0.14781 0.61249 0.0
C190 C 0.52915 0.13508 0.63852 0.0
C191 C 0.54197 0.13057 0.66270 0.0
C192 C 0.55997 0.13883 0.66101 0.0
C193 C 0.56519 0.15156 0.63503 0.0
C194 C 0.53685 0.11774 0.68856 0.0
C195 C 0.54980 0.11323 0.71243 0.0
O196 O 0.55665 0.16265 0.42279 0.0
O197 O 0.55771 0.16785 0.58442 0.0
O198 O 0.54244 0.22294 0.48566 0.0
H199 H 0.53346 0.11573 0.29393 0.0
H200 H 0.57331 0.11267 0.30152 0.0
H201 H 0.58778 0.12999 0.35122 0.0
H202 H 0.58582 0.15005 0.40151 0.0
H203 H 0.53026 0.14995 0.38015 0.0
H204 H 0.53222 0.12992 0.32991 0.0
H205 H 0.58267 0.17251 0.42975 0.0
H206 H 0.57553 0.15267 0.45068 0.0
H207 H 0.55055 0.14151 0.52300 0.0
H208 H 0.57163 0.14271 0.50642 0.0
H209 H 0.55346 0.14090 0.47909 0.0
H210 H 0.57672 0.19425 0.42111 0.0
H211 H 0.58990 0.20830 0.44896 0.0
H212 H 0.56962 0.21358 0.43581 0.0
H213 H 0.53941 0.19363 0.57143 0.0
H214 H 0.53500 0.20920 0.54166 0.0
H215 H 0.55470 0.21233 0.56462 0.0
H216 H 0.56333 0.22776 0.51850 0.0
H217 H 0.56870 0.22698 0.47537 0.0
H218 H 0.56786 0.25057 0.49528 0.0
H219 H 0.56365 0.28242 0.49847 0.0
H220 H 0.50758 0.26765 0.48106 0.0
H221 H 0.51180 0.23580 0.47788 0.0
H222 H 0.52011 0.29936 0.48943 0.0
H223 H 0.56065 0.30522 0.50147 0.0
H224 H 0.53336 0.16974 0.56481 0.0
H225 H 0.54273 0.15142 0.55127 0.0
H226 H 0.52497 0.15107 0.59438 0.0
H227 H 0.51583 0.12895 0.63981 0.0
H228 H 0.56943 0.13546 0.67894 0.0
H229 H 0.57853 0.15761 0.63360 0.0
H230 H 0.52354 0.11159 0.69002 0.0
H231 H 0.56310 0.11941 0.71089 0.0
C232 C 0.89721 0.46241 0.71326 0.0
C233 C 0.89162 0.44685 0.69289 0.0
C234 C 0.88016 0.44785 0.66395 0.0
C235 C 0.87441 0.43238 0.64340 0.0
C236 C 0.86291 0.43350 0.61453 0.0
C237 C 0.85718 0.45008 0.60634 0.0
C238 C 0.86297 0.46554 0.62682 0.0
C239 C 0.87445 0.46442 0.65564 0.0
C240 C 0.84368 0.43584 0.55776 0.0
C241 C 0.83410 0.44084 0.52874 0.0
C242 C 0.81526 0.43939 0.52976 0.0
C243 C 0.80606 0.44736 0.50333 0.0
C244 C 0.81541 0.45492 0.47414 0.0
C245 C 0.83410 0.45491 0.47182 0.0
C246 C 0.84346 0.44788 0.49919 0.0
C247 C 0.86233 0.44911 0.49816 0.0
C248 C 0.80583 0.43125 0.55842 0.0
C249 C 0.80613 0.46299 0.44792 0.0
C250 C 0.78754 0.44801 0.50616 0.0
C251 C 0.76813 0.46791 0.51432 0.0
C252 C 0.75481 0.45295 0.50852 0.0
C253 C 0.73658 0.45538 0.50665 0.0
C254 C 0.73171 0.47276 0.51059 0.0
C255 C 0.74504 0.48771 0.51666 0.0
C256 C 0.76327 0.48528 0.51852 0.0
C257 C 0.71349 0.47515 0.50839 0.0
C258 C 0.70024 0.46016 0.50218 0.0
C259 C 0.84364 0.46276 0.44314 0.0
C260 C 0.85271 0.45561 0.38996 0.0
C261 C 0.86090 0.47368 0.38827 0.0
C262 C 0.87358 0.47892 0.36224 0.0
C263 C 0.87808 0.46607 0.33806 0.0
C264 C 0.86985 0.44801 0.33975 0.0
C265 C 0.85715 0.44277 0.36573 0.0
C266 C 0.89087 0.47120 0.31219 0.0
C267 C 0.89537 0.45822 0.28833 0.0
O268 O 0.84609 0.45134 0.57797 0.0
O269 O 0.84091 0.45028 0.41634 0.0
O270 O 0.78599 0.46560 0.51510 0.0
H271 H 0.89287 0.47460 0.70683 0.0
H272 H 0.89593 0.43463 0.69924 0.0
H273 H 0.87865 0.42011 0.64954 0.0
H274 H 0.85866 0.42208 0.59925 0.0
H275 H 0.85876 0.47781 0.62061 0.0
H276 H 0.87872 0.47585 0.67085 0.0
H277 H 0.83627 0.42524 0.57101 0.0
H278 H 0.85605 0.43240 0.55008 0.0
H279 H 0.86717 0.45746 0.47776 0.0
H280 H 0.86598 0.43631 0.49434 0.0
H281 H 0.86778 0.45454 0.52167 0.0
H282 H 0.81459 0.43121 0.57965 0.0
H283 H 0.80059 0.41799 0.55180 0.0
H284 H 0.79533 0.43834 0.56495 0.0
H285 H 0.81521 0.46863 0.42933 0.0
H286 H 0.79969 0.47306 0.45910 0.0
H287 H 0.79657 0.45330 0.43613 0.0
H288 H 0.78118 0.44464 0.48226 0.0
H289 H 0.78197 0.43925 0.52538 0.0
H290 H 0.75845 0.44010 0.50547 0.0
H291 H 0.72669 0.44433 0.50229 0.0
H292 H 0.74143 0.50057 0.51969 0.0
H293 H 0.77317 0.49633 0.52288 0.0
H294 H 0.70980 0.48799 0.51132 0.0
H295 H 0.70396 0.44733 0.49928 0.0
H296 H 0.83903 0.47471 0.43594 0.0
H297 H 0.85730 0.46530 0.44949 0.0
H298 H 0.85764 0.48312 0.40638 0.0
H299 H 0.87970 0.49229 0.36094 0.0
H300 H 0.87321 0.43852 0.32182 0.0
H301 H 0.85112 0.42939 0.36716 0.0
H302 H 0.89701 0.48456 0.31074 0.0
H303 H 0.88921 0.44487 0.28987 0.0
C304 C 0.46335 0.89477 0.71323 0.0
C305 C 0.47887 0.89355 0.69352 0.0
C306 C 0.47787 0.88178 0.66454 0.0
C307 C 0.49329 0.88038 0.64464 0.0
C308 C 0.49217 0.86853 0.61573 0.0
C309 C 0.47565 0.85810 0.60684 0.0
C310 C 0.46023 0.85954 0.62666 0.0
C311 C 0.46135 0.87137 0.65553 0.0
C312 C 0.48984 0.84858 0.55886 0.0
C313 C 0.48486 0.83756 0.52963 0.0
C314 C 0.48630 0.81907 0.53071 0.0
C315 C 0.47836 0.80759 0.50394 0.0
C316 C 0.47082 0.81484 0.47443 0.0
C317 C 0.47083 0.83359 0.47211 0.0
C318 C 0.47783 0.84496 0.49978 0.0
C319 C 0.47661 0.86354 0.49869 0.0
C320 C 0.49442 0.81191 0.55971 0.0
C321 C 0.46277 0.80324 0.44787 0.0
C322 C 0.47771 0.78883 0.50674 0.0
C323 C 0.45787 0.76373 0.51406 0.0
C324 C 0.47278 0.75460 0.50889 0.0
C325 C 0.47036 0.73563 0.50692 0.0
C326 C 0.45303 0.72584 0.51013 0.0
C327 C 0.43813 0.73499 0.51557 0.0
C328 C 0.44056 0.75395 0.51753 0.0
C329 C 0.45065 0.70688 0.50783 0.0
C330 C 0.46560 0.69783 0.50225 0.0
C331 C 0.46300 0.84093 0.44310 0.0
C332 C 0.47014 0.85206 0.39023 0.0
C333 C 0.45212 0.85516 0.38777 0.0
C334 C 0.44689 0.86640 0.36152 0.0
C335 C 0.45971 0.87455 0.33788 0.0
C336 C 0.47771 0.87139 0.34033 0.0
C337 C 0.48293 0.86013 0.36653 0.0
C338 C 0.45459 0.88592 0.31180 0.0
C339 C 0.46753 0.89411 0.28848 0.0
O340 O 0.47439 0.84662 0.57841 0.0
O341 O 0.47545 0.84173 0.41683 0.0
O342 O 0.46018 0.78231 0.51494 0.0
H343 H 0.45120 0.88697 0.70629 0.0
H344 H 0.49104 0.90133 0.70039 0.0
H345 H 0.50552 0.88810 0.65130 0.0
H346 H 0.50356 0.86749 0.60093 0.0
H347 H 0.44800 0.85185 0.61993 0.0
H348 H 0.44995 0.87242 0.67025 0.0
H349 H 0.50041 0.84414 0.57256 0.0
H350 H 0.49327 0.86196 0.55132 0.0
H351 H 0.46829 0.86603 0.47795 0.0
H352 H 0.48937 0.87081 0.49541 0.0
H353 H 0.47120 0.86747 0.52198 0.0
H354 H 0.49445 0.82071 0.58094 0.0
H355 H 0.50763 0.81040 0.55365 0.0
H356 H 0.48735 0.79937 0.56594 0.0
H357 H 0.45715 0.81076 0.42904 0.0
H358 H 0.45274 0.79394 0.45862 0.0
H359 H 0.47244 0.79639 0.43649 0.0
H360 H 0.48107 0.78340 0.48298 0.0
H361 H 0.48644 0.78571 0.52633 0.0
H362 H 0.48560 0.76188 0.50639 0.0
H363 H 0.48138 0.72884 0.50302 0.0
H364 H 0.42531 0.72772 0.51806 0.0
H365 H 0.42954 0.76077 0.52142 0.0
H366 H 0.43785 0.69956 0.51021 0.0
H367 H 0.47839 0.70519 0.49989 0.0
H368 H 0.45109 0.83294 0.43540 0.0
H369 H 0.46047 0.85391 0.44934 0.0
H370 H 0.44271 0.84923 0.40548 0.0
H371 H 0.43356 0.86876 0.35966 0.0
H372 H 0.48717 0.87744 0.32280 0.0
H373 H 0.49627 0.85787 0.36853 0.0
H374 H 0.44127 0.88831 0.30978 0.0
H375 H 0.48083 0.89170 0.29059 0.0
C376 C 0.41896 0.51573 0.50015 0.0
C377 C 0.40169 0.52098 0.50025 0.0
C378 C 0.38439 0.52623 0.50035 0.0
C379 C 0.36711 0.53144 0.50040 0.0
C380 C 0.34977 0.53659 0.50035 0.0
C381 C 0.33244 0.54169 0.50025 0.0
C382 C 0.51740 0.41825 0.50012 0.0
C383 C 0.52251 0.40087 0.50013 0.0
C384 C 0.52763 0.38348 0.50016 0.0
C385 C 0.53279 0.36613 0.50017 0.0
C386 C 0.53803 0.34878 0.50018 0.0
C387 C 0.54332 0.33148 0.50019 0.0
C388 C 0.59123 0.49059 0.50066 0.0
C389 C 0.60852 0.48536 0.50077 0.0
C390 C 0.62582 0.48013 0.50089 0.0
C391 C 0.64311 0.47493 0.50092 0.0
C392 C 0.66044 0.46977 0.50082 0.0
C393 C 0.67776 0.46464 0.50064 0.0
C394 C 0.49276 0.58805 0.50052 0.0
C395 C 0.48760 0.60541 0.50037 0.0
C396 C 0.48244 0.62278 0.50023 0.0
C397 C 0.47727 0.64013 0.50018 0.0
C398 C 0.47206 0.65749 0.50028 0.0
C399 C 0.46685 0.67482 0.50046 0.0
C400 C 0.07787 0.53161 0.80466 0.0
C401 C 0.08470 0.53524 0.83867 0.0
C402 C 0.07379 0.53020 0.86758 0.0
C403 C 0.05606 0.52152 0.86247 0.0
C404 C 0.04923 0.51788 0.82846 0.0
C405 C 0.06014 0.52293 0.79955 0.0
C406 C 0.05331 0.51929 0.76554 0.0
C407 C 0.03557 0.51061 0.76044 0.0
C408 C 0.02467 0.50557 0.78935 0.0
C409 C 0.03150 0.50920 0.82336 0.0
C410 C 0.08062 0.53384 0.90159 0.0
C411 C 0.09835 0.54252 0.90669 0.0
C412 C 0.10926 0.54756 0.87778 0.0
C413 C 0.10243 0.54392 0.84377 0.0
C414 C 0.04515 0.51648 0.89138 0.0
C415 C 0.03425 0.51143 0.92028 0.0
C416 C 0.08877 0.53665 0.77575 0.0
C417 C 0.09968 0.54169 0.74685 0.0
H418 H 0.06130 0.52325 0.74415 0.0
H419 H 0.03044 0.50814 0.73527 0.0
H420 H 0.01146 0.49936 0.78558 0.0
H421 H 0.02334 0.50569 0.84477 0.0
H422 H 0.07246 0.53032 0.92299 0.0
H423 H 0.10333 0.54543 0.93188 0.0
H424 H 0.12231 0.55421 0.88157 0.0
H425 H 0.11042 0.54788 0.82238 0.0
C426 C 0.53345 0.07617 0.80465 0.0
C427 C 0.52642 0.05787 0.79963 0.0
C428 C 0.52141 0.04693 0.82854 0.0
C429 C 0.52344 0.05429 0.86248 0.0
C430 C 0.53047 0.07259 0.86750 0.0
C431 C 0.53548 0.08353 0.83858 0.0
C432 C 0.54251 0.10184 0.84360 0.0
C433 C 0.54454 0.10920 0.87754 0.0
C434 C 0.53953 0.09825 0.90646 0.0
C435 C 0.53249 0.07995 0.90143 0.0
C436 C 0.51438 0.02862 0.82352 0.0
C437 C 0.51235 0.02126 0.78959 0.0
C438 C 0.51736 0.03220 0.76067 0.0
C439 C 0.52440 0.05051 0.76569 0.0
C440 C 0.51843 0.04334 0.89139 0.0
C441 C 0.51342 0.03240 0.92030 0.0
C442 C 0.53846 0.08711 0.77574 0.0
C443 C 0.54347 0.09805 0.74683 0.0
H444 H 0.54645 0.10987 0.82223 0.0
H445 H 0.54997 0.12268 0.88128 0.0
H446 H 0.54126 0.10363 0.93160 0.0
H447 H 0.52902 0.07178 0.92287 0.0
H448 H 0.51090 0.02045 0.84495 0.0
H449 H 0.50737 0.00764 0.78590 0.0
H450 H 0.51609 0.02669 0.73558 0.0
H451 H 0.52833 0.05854 0.74432 0.0
C452 C 0.93231 0.47464 0.19610 0.0
C453 C 0.95072 0.48104 0.20104 0.0
C454 C 0.96163 0.48607 0.17213 0.0
C455 C 0.95412 0.48471 0.13829 0.0
C456 C 0.93572 0.47831 0.13335 0.0
C457 C 0.92481 0.47327 0.16227 0.0
C458 C 0.90640 0.46687 0.15734 0.0
C459 C 0.89890 0.46551 0.12349 0.0
C460 C 0.90981 0.47054 0.09458 0.0
C461 C 0.92822 0.47694 0.09951 0.0
C462 C 0.98003 0.49247 0.17705 0.0
C463 C 0.98753 0.49384 0.21090 0.0
C464 C 0.97663 0.48880 0.23981 0.0
C465 C 0.95822 0.48240 0.23488 0.0
C466 C 0.96503 0.48974 0.10938 0.0
C467 C 0.97594 0.49477 0.08047 0.0
C468 C 0.92141 0.46960 0.22501 0.0
C469 C 0.91050 0.46457 0.25392 0.0
H470 H 0.89839 0.46291 0.17870 0.0
H471 H 0.88534 0.46054 0.11980 0.0
H472 H 0.90432 0.46930 0.06949 0.0
H473 H 0.93635 0.48044 0.07807 0.0
H474 H 0.98817 0.49597 0.15562 0.0
H475 H 0.00122 0.49834 0.21451 0.0
H476 H 0.98224 0.48958 0.26483 0.0
H477 H 0.95020 0.47844 0.25624 0.0
C478 C 0.47680 0.93016 0.19611 0.0
C479 C 0.49496 0.93351 0.18621 0.0
C480 C 0.49998 0.94445 0.15730 0.0
C481 C 0.48683 0.95204 0.13829 0.0
C482 C 0.46867 0.94869 0.14819 0.0
C483 C 0.46365 0.93774 0.17710 0.0
C484 C 0.44549 0.93439 0.18700 0.0
C485 C 0.43234 0.94198 0.16799 0.0
C486 C 0.43736 0.95292 0.13907 0.0
C487 C 0.45552 0.95628 0.12917 0.0
C488 C 0.51814 0.94780 0.14739 0.0
C489 C 0.53128 0.94021 0.16641 0.0
C490 C 0.52627 0.92927 0.19532 0.0
C491 C 0.50811 0.92592 0.20522 0.0
C492 C 0.49184 0.96298 0.10938 0.0
C493 C 0.49686 0.97392 0.08047 0.0
C494 C 0.47178 0.91922 0.22502 0.0
C495 C 0.46677 0.90828 0.25393 0.0
H496 H 0.44175 0.92609 0.20811 0.0
H497 H 0.41887 0.93930 0.17502 0.0
H498 H 0.42760 0.95834 0.12471 0.0
H499 H 0.45921 0.96418 0.10747 0.0
H500 H 0.52182 0.95570 0.12570 0.0
H501 H 0.54470 0.94249 0.15878 0.0
H502 H 0.53597 0.92345 0.20910 0.0
H503 H 0.50437 0.91762 0.22633 0.0
C504 C 0.53328 0.07490 0.19213 0.0
C505 C 0.54554 0.06442 0.17754 0.0
C506 C 0.54047 0.05332 0.14826 0.0
C507 C 0.52314 0.05271 0.13359 0.0
C508 C 0.51088 0.06319 0.14818 0.0
C509 C 0.51595 0.07428 0.17745 0.0
C510 C 0.50369 0.08476 0.19205 0.0
C511 C 0.48636 0.08415 0.17737 0.0
C512 C 0.48128 0.07305 0.14810 0.0
C513 C 0.49355 0.06257 0.13350 0.0
C514 C 0.55273 0.04284 0.13367 0.0
C515 C 0.57006 0.04346 0.14834 0.0
C516 C 0.57514 0.05455 0.17762 0.0
C517 C 0.56287 0.06503 0.19222 0.0
C518 C 0.51807 0.04161 0.10431 0.0
C519 C 0.51299 0.03052 0.07504 0.0
C520 C 0.53835 0.08599 0.22140 0.0
C521 C 0.54343 0.09708 0.25067 0.0
H522 H 0.50736 0.09278 0.21401 0.0
H523 H 0.47720 0.09171 0.18846 0.0
H524 H 0.46837 0.07240 0.13751 0.0
H525 H 0.48971 0.05417 0.11211 0.0
H526 H 0.54890 0.03444 0.11228 0.0
H527 H 0.57906 0.03550 0.13782 0.0
H528 H 0.58789 0.05481 0.18877 0.0
H529 H 0.56655 0.07305 0.21417 0.0
C530 C 0.07660 0.53143 0.19213 0.0
C531 C 0.07085 0.51304 0.18486 0.0
C532 C 0.05979 0.50794 0.15559 0.0
C533 C 0.05448 0.52122 0.13359 0.0
C534 C 0.06023 0.53961 0.14085 0.0
C535 C 0.07129 0.54472 0.17012 0.0
C536 C 0.07704 0.56311 0.17739 0.0
C537 C 0.07173 0.57639 0.15539 0.0
C538 C 0.06068 0.57128 0.12612 0.0
C539 C 0.05493 0.55289 0.11885 0.0
C540 C 0.05404 0.48955 0.14832 0.0
C541 C 0.05935 0.47626 0.17033 0.0
C542 C 0.07040 0.48137 0.19960 0.0
C543 C 0.07615 0.49976 0.20687 0.0
C544 C 0.04343 0.51611 0.10432 0.0
C545 C 0.03237 0.51100 0.07505 0.0
C546 C 0.08765 0.53654 0.22139 0.0
C547 C 0.09871 0.54165 0.25066 0.0
H548 H 0.08502 0.56689 0.19932 0.0
H549 H 0.07579 0.59001 0.16103 0.0
H550 H 0.05654 0.58112 0.11009 0.0
H551 H 0.04654 0.54911 0.09744 0.0
H552 H 0.04565 0.48576 0.12692 0.0
H553 H 0.05488 0.46265 0.16521 0.0
H554 H 0.07412 0.47154 0.21615 0.0
H555 H 0.08413 0.50354 0.22880 0.0
C556 C 0.93358 0.47481 0.80863 0.0
C557 C 0.92778 0.48596 0.83470 0.0
C558 C 0.93884 0.49106 0.86397 0.0
C559 C 0.95570 0.48501 0.86717 0.0
C560 C 0.96149 0.47386 0.84111 0.0
C561 C 0.95043 0.46876 0.81184 0.0
C562 C 0.95623 0.45760 0.78577 0.0
C563 C 0.97308 0.45155 0.78898 0.0
C564 C 0.98414 0.45665 0.81825 0.0
C565 C 0.97835 0.46780 0.84432 0.0
C566 C 0.93305 0.50221 0.89003 0.0
C567 C 0.91619 0.50827 0.88683 0.0
C568 C 0.90514 0.50317 0.85755 0.0
C569 C 0.91093 0.49202 0.83149 0.0
C570 C 0.96675 0.49011 0.89644 0.0
C571 C 0.97781 0.49520 0.92571 0.0
C572 C 0.92252 0.46971 0.77936 0.0
C573 C 0.91146 0.46461 0.75010 0.0
H574 H 0.94793 0.45363 0.76435 0.0
H575 H 0.97726 0.44309 0.76993 0.0
H576 H 0.99651 0.45197 0.82087 0.0
H577 H 0.98643 0.47138 0.86623 0.0
H578 H 0.94113 0.50579 0.91194 0.0
H579 H 0.91180 0.51633 0.90637 0.0
H580 H 0.89255 0.50745 0.85543 0.0
H581 H 0.90263 0.48804 0.81007 0.0
C582 C 0.47697 0.93143 0.80863 0.0
C583 C 0.47957 0.95033 0.80530 0.0
C584 C 0.48465 0.96142 0.83458 0.0
C585 C 0.48713 0.95361 0.86718 0.0
C586 C 0.48453 0.93471 0.87051 0.0
C587 C 0.47945 0.92362 0.84123 0.0
C588 C 0.47684 0.90472 0.84456 0.0
C589 C 0.47932 0.89691 0.87717 0.0
C590 C 0.48440 0.90801 0.90644 0.0
C591 C 0.48700 0.92691 0.90311 0.0
C592 C 0.48726 0.98032 0.83125 0.0
C593 C 0.48478 0.98813 0.79864 0.0
C594 C 0.47970 0.97703 0.76937 0.0
C595 C 0.47710 0.95813 0.77270 0.0
C596 C 0.49221 0.96471 0.89645 0.0
C597 C 0.49729 0.97580 0.92572 0.0
C598 C 0.47189 0.92033 0.77936 0.0
C599 C 0.46681 0.90924 0.75009 0.0
H600 H 0.47284 0.89652 0.82300 0.0
H601 H 0.47715 0.88293 0.87974 0.0
H602 H 0.48599 0.90224 0.93068 0.0
H603 H 0.49052 0.93513 0.92489 0.0
H604 H 0.49078 0.98854 0.85301 0.0
H605 H 0.48647 0.00213 0.79628 0.0
H606 H 0.47763 0.98283 0.74533 0.0
H607 H 0.47310 0.94993 0.75113 0.0
