data_{}
_symmetry_space_group_name_H-M    P1
_symmetry_Int_Tables_number       1
_symmetry_cell_setting            triclinic
loop_
_symmetry_equiv_pos_as_xyz
'x, y, z'
_cell_length_a     84.408
_cell_length_b     84.407
_cell_length_c     40.733
_cell_angle_alpha  90.135
_cell_angle_beta   90.133
_cell_angle_gamma  78.700
loop_
_atom_site_label
_atom_site_type_symbol
_atom_site_fract_x
_atom_site_fract_y
_atom_site_fract_z
_atom_type_partial_charge
N0 N 0.02692 0.54864 0.96635 0.0
Cd1 Cd 0.01467 0.53427 0.00611 0.0
N2 N 0.99766 0.52832 0.04808 0.0
H3 H 0.97855 0.52893 0.97976 0.0
H4 H 0.02348 0.50876 0.94780 0.0
H5 H 0.96733 0.51698 0.93320 0.0
H6 H 0.01311 0.49658 0.90369 0.0
H7 H 0.03369 0.56142 0.03275 0.0
H8 H 0.03219 0.52019 0.07032 0.0
H9 H 0.05424 0.56458 0.07056 0.0
H10 H 0.05274 0.52218 0.10662 0.0
H11 H 0.05079 0.53958 0.98018 0.0
H12 H 0.00588 0.55972 0.94784 0.0
H13 H 0.06203 0.55148 0.93381 0.0
H14 H 0.01627 0.57185 0.90391 0.0
H15 H 0.99563 0.50715 0.03240 0.0
H16 H 0.99711 0.54842 0.07020 0.0
H17 H 0.97506 0.50403 0.06996 0.0
H18 H 0.97654 0.54647 0.10627 0.0
C19 C 0.98661 0.52193 0.96175 0.0
C20 C 0.01168 0.51021 0.94489 0.0
C21 C 0.97949 0.51514 0.93612 0.0
C22 C 0.00552 0.50303 0.91848 0.0
C23 C 0.98901 0.50575 0.91335 0.0
C24 C 0.03787 0.55358 0.04905 0.0
C25 C 0.03716 0.52901 0.07088 0.0
C26 C 0.04976 0.55582 0.07087 0.0
C27 C 0.04901 0.53036 0.09314 0.0
C28 C 0.05597 0.54387 0.09294 0.0
C29 C 0.04275 0.54656 0.96212 0.0
C30 C 0.01768 0.55826 0.94505 0.0
C31 C 0.04987 0.55332 0.93660 0.0
C32 C 0.02386 0.56541 0.91875 0.0
C33 C 0.04036 0.56269 0.91379 0.0
C34 C 0.99144 0.51500 0.04869 0.0
C35 C 0.99214 0.53960 0.07066 0.0
C36 C 0.97955 0.51279 0.07037 0.0
C37 C 0.98028 0.53828 0.09279 0.0
C38 C 0.97332 0.52477 0.09244 0.0
N39 N 0.00244 0.51986 0.96614 0.0
N40 N 0.03166 0.54027 0.04829 0.0
N41 N 0.53376 0.03540 0.96632 0.0
Cd42 Cd 0.53428 0.01467 0.00612 0.0
N43 N 0.52640 0.99876 0.04807 0.0
H44 H 0.51307 0.98759 0.97972 0.0
H45 H 0.55592 0.99665 0.94790 0.0
H46 H 0.51280 0.96973 0.93319 0.0
H47 H 0.55637 0.97910 0.90381 0.0
H48 H 0.53050 0.05130 0.03269 0.0
H49 H 0.55480 0.01251 0.07039 0.0
H50 H 0.54250 0.06682 0.07051 0.0
H51 H 0.56752 0.02695 0.10671 0.0
H52 H 0.55551 0.04174 0.98021 0.0
H53 H 0.51269 0.03266 0.94774 0.0
H54 H 0.55583 0.05957 0.93382 0.0
H55 H 0.51229 0.05018 0.90379 0.0
H56 H 0.53802 0.97806 0.03246 0.0
H57 H 0.51368 0.01689 0.07013 0.0
H58 H 0.52599 0.96258 0.07001 0.0
H59 H 0.50093 0.00247 0.10618 0.0
C60 C 0.52283 0.98610 0.96175 0.0
C61 C 0.54703 0.99074 0.94497 0.0
C62 C 0.52218 0.97550 0.93613 0.0
C63 C 0.54725 0.98036 0.91857 0.0
C64 C 0.53440 0.97272 0.91341 0.0
C65 C 0.53815 0.04667 0.04902 0.0
C66 C 0.55276 0.02366 0.07093 0.0
C67 C 0.54483 0.05602 0.07085 0.0
C68 C 0.55997 0.03217 0.09320 0.0
C69 C 0.55639 0.04885 0.09297 0.0
C70 C 0.54576 0.04321 0.96212 0.0
C71 C 0.52159 0.03857 0.94498 0.0
C72 C 0.54644 0.05380 0.93659 0.0
C73 C 0.52138 0.04893 0.91866 0.0
C74 C 0.53425 0.05657 0.91373 0.0
C75 C 0.53036 0.98271 0.04872 0.0
C76 C 0.51573 0.00574 0.07062 0.0
C77 C 0.52365 0.97338 0.07039 0.0
C78 C 0.50850 0.99724 0.09273 0.0
C79 C 0.51208 0.98056 0.09242 0.0
N80 N 0.53483 0.99392 0.96617 0.0
N81 N 0.54211 0.03062 0.04830 0.0
Cd82 Cd 0.51649 0.51649 0.50287 0.0
H83 H 0.46191 0.54879 0.54615 0.0
H84 H 0.48913 0.53842 0.54200 0.0
H85 H 0.48174 0.50799 0.47361 0.0
H86 H 0.45425 0.51685 0.47727 0.0
H87 H 0.54866 0.46179 0.45970 0.0
H88 H 0.53830 0.48902 0.46377 0.0
H89 H 0.50806 0.48183 0.53234 0.0
H90 H 0.51691 0.45432 0.52877 0.0
C91 C 0.50732 0.55293 0.47288 0.0
C92 C 0.50427 0.56961 0.47034 0.0
C93 C 0.50947 0.57865 0.49500 0.0
C94 C 0.51793 0.57017 0.52070 0.0
C95 C 0.52038 0.55355 0.52146 0.0
C96 C 0.55301 0.50741 0.53273 0.0
C97 C 0.56969 0.50436 0.53521 0.0
C98 C 0.57867 0.50949 0.51049 0.0
C99 C 0.57011 0.51789 0.48479 0.0
C100 C 0.55349 0.52033 0.48409 0.0
N101 N 0.48806 0.52258 0.50681 0.0
N102 N 0.52256 0.48806 0.49903 0.0
N103 N 0.51493 0.54491 0.49822 0.0
H104 H 0.50383 0.54696 0.45576 0.0
N105 N 0.54491 0.51495 0.50740 0.0
H106 H 0.52615 0.54808 0.53920 0.0
H107 H 0.49871 0.57474 0.45204 0.0
H108 H 0.52204 0.57578 0.53767 0.0
Cl109 Cl 0.51503 0.51543 0.43863 0.0
Cl110 Cl 0.51561 0.51522 0.56713 0.0
H111 H 0.54708 0.50397 0.54990 0.0
H112 H 0.54797 0.52606 0.46635 0.0
H113 H 0.57487 0.49885 0.55351 0.0
H114 H 0.57568 0.52194 0.46777 0.0
C115 C 0.45482 0.53442 0.51148 0.0
C116 C 0.46564 0.54048 0.53104 0.0
C117 C 0.48196 0.53427 0.52824 0.0
C118 C 0.47766 0.51636 0.48837 0.0
C119 C 0.46119 0.52170 0.49023 0.0
C120 C 0.53439 0.45480 0.49447 0.0
C121 C 0.54039 0.46557 0.47483 0.0
C122 C 0.53419 0.48190 0.47758 0.0
C123 C 0.51640 0.47770 0.51755 0.0
C124 C 0.52173 0.46124 0.51575 0.0
C125 C 0.12201 0.60408 0.28379 0.0
C126 C 0.12785 0.58875 0.30437 0.0
C127 C 0.13896 0.58941 0.33415 0.0
C128 C 0.14496 0.57417 0.35492 0.0
C129 C 0.15611 0.57494 0.38463 0.0
C130 C 0.16125 0.59094 0.39345 0.0
C131 C 0.15522 0.60617 0.37277 0.0
C132 C 0.14409 0.60540 0.34310 0.0
C133 C 0.17473 0.57668 0.44310 0.0
C134 C 0.18390 0.58129 0.47308 0.0
C135 C 0.20238 0.57935 0.47188 0.0
C136 C 0.21110 0.58686 0.49927 0.0
C137 C 0.20169 0.59449 0.52960 0.0
C138 C 0.18340 0.59501 0.53210 0.0
C139 C 0.17450 0.58842 0.50376 0.0
C140 C 0.15600 0.59015 0.50496 0.0
C141 C 0.21189 0.57115 0.44209 0.0
C142 C 0.21050 0.60210 0.55677 0.0
C143 C 0.22921 0.58697 0.49627 0.0
C144 C 0.24768 0.60583 0.48825 0.0
C145 C 0.26110 0.59087 0.49378 0.0
C146 C 0.27886 0.59273 0.49566 0.0
C147 C 0.28316 0.60954 0.49201 0.0
C148 C 0.26973 0.62448 0.48620 0.0
C149 C 0.25197 0.62262 0.48432 0.0
C150 C 0.30092 0.61136 0.49423 0.0
C151 C 0.31426 0.59636 0.50019 0.0
C152 C 0.17380 0.60293 0.56190 0.0
C153 C 0.16499 0.59622 0.61658 0.0
C154 C 0.15650 0.61407 0.61883 0.0
C155 C 0.14389 0.61954 0.64585 0.0
C156 C 0.13979 0.60713 0.67048 0.0
C157 C 0.14833 0.58930 0.66824 0.0
C158 C 0.16095 0.58383 0.64126 0.0
C159 C 0.12708 0.61250 0.69733 0.0
C160 C 0.12297 0.59997 0.72164 0.0
O161 O 0.17201 0.59186 0.42267 0.0
O162 O 0.17674 0.59069 0.58920 0.0
O163 O 0.23027 0.60408 0.48749 0.0
H164 H 0.12591 0.61584 0.29070 0.0
H165 H 0.12398 0.57697 0.29754 0.0
H166 H 0.14116 0.56233 0.34830 0.0
H167 H 0.16055 0.56369 0.40007 0.0
H168 H 0.15900 0.61802 0.37945 0.0
H169 H 0.13964 0.61667 0.32774 0.0
H170 H 0.18230 0.56614 0.42913 0.0
H171 H 0.16272 0.57368 0.45100 0.0
H172 H 0.15100 0.59843 0.52622 0.0
H173 H 0.15277 0.57778 0.50860 0.0
H174 H 0.15058 0.59559 0.48089 0.0
H175 H 0.20337 0.57135 0.42026 0.0
H176 H 0.21735 0.55807 0.44856 0.0
H177 H 0.22198 0.57776 0.43548 0.0
H178 H 0.20142 0.60786 0.57613 0.0
H179 H 0.21654 0.61174 0.54547 0.0
H180 H 0.22008 0.59239 0.56862 0.0
H181 H 0.23546 0.58352 0.52079 0.0
H182 H 0.23494 0.57828 0.47621 0.0
H183 H 0.25788 0.57844 0.49662 0.0
H184 H 0.28881 0.58167 0.49983 0.0
H185 H 0.27293 0.63692 0.48338 0.0
H186 H 0.24200 0.63368 0.48017 0.0
H187 H 0.30418 0.62377 0.49152 0.0
H188 H 0.31096 0.58397 0.50288 0.0
H189 H 0.17797 0.61445 0.56959 0.0
H190 H 0.16038 0.60580 0.55549 0.0
H191 H 0.15947 0.62318 0.60038 0.0
H192 H 0.13755 0.63274 0.64755 0.0
H193 H 0.14526 0.58014 0.68650 0.0
H194 H 0.16721 0.57062 0.63942 0.0
H195 H 0.12072 0.62569 0.69920 0.0
H196 H 0.12936 0.58679 0.71967 0.0
C197 C 0.60283 0.12222 0.28379 0.0
C198 C 0.61797 0.12294 0.30449 0.0
C199 C 0.61667 0.13438 0.33427 0.0
C200 C 0.63172 0.13528 0.35515 0.0
C201 C 0.63029 0.14680 0.38486 0.0
C202 C 0.61384 0.15740 0.39355 0.0
C203 C 0.59881 0.15646 0.37274 0.0
C204 C 0.60023 0.14496 0.34308 0.0
C205 C 0.62746 0.16619 0.44330 0.0
C206 C 0.62229 0.17701 0.47325 0.0
C207 C 0.62318 0.19501 0.47206 0.0
C208 C 0.61510 0.20636 0.49939 0.0
C209 C 0.60793 0.19943 0.52965 0.0
C210 C 0.60846 0.18114 0.53215 0.0
C211 C 0.61562 0.16992 0.50387 0.0
C212 C 0.61494 0.15184 0.50507 0.0
C213 C 0.63092 0.20183 0.44233 0.0
C214 C 0.59974 0.21090 0.55677 0.0
C215 C 0.61394 0.22467 0.49638 0.0
C216 C 0.59384 0.24970 0.48821 0.0
C217 C 0.60817 0.25819 0.49385 0.0
C218 C 0.60527 0.27675 0.49572 0.0
C219 C 0.58805 0.28678 0.49193 0.0
C220 C 0.57373 0.27828 0.48600 0.0
C221 C 0.57663 0.25972 0.48414 0.0
C222 C 0.58520 0.30533 0.49413 0.0
C223 C 0.59957 0.31373 0.50021 0.0
C224 C 0.60101 0.17413 0.56189 0.0
C225 C 0.60830 0.16297 0.61663 0.0
C226 C 0.59077 0.16042 0.61874 0.0
C227 C 0.58597 0.14954 0.64572 0.0
C228 C 0.59873 0.14121 0.67045 0.0
C229 C 0.61624 0.14380 0.66835 0.0
C230 C 0.62104 0.15469 0.64142 0.0
C231 C 0.59404 0.13019 0.69726 0.0
C232 C 0.60693 0.12181 0.72167 0.0
O233 O 0.61229 0.16857 0.42276 0.0
O234 O 0.61320 0.17295 0.58929 0.0
O235 O 0.59661 0.23153 0.48746 0.0
H236 H 0.59073 0.13014 0.29060 0.0
H237 H 0.63010 0.11504 0.29776 0.0
H238 H 0.64389 0.12744 0.34863 0.0
H239 H 0.64140 0.14748 0.40039 0.0
H240 H 0.58663 0.16428 0.37933 0.0
H241 H 0.58911 0.14428 0.32763 0.0
H242 H 0.63767 0.17027 0.42943 0.0
H243 H 0.63118 0.15304 0.45123 0.0
H244 H 0.60687 0.14958 0.52625 0.0
H245 H 0.62762 0.14439 0.50880 0.0
H246 H 0.60976 0.14820 0.48095 0.0
H247 H 0.63120 0.19330 0.42050 0.0
H248 H 0.64380 0.20293 0.44891 0.0
H249 H 0.62366 0.21426 0.43567 0.0
H250 H 0.59445 0.20368 0.57608 0.0
H251 H 0.58966 0.22026 0.54539 0.0
H252 H 0.60900 0.21729 0.56870 0.0
H253 H 0.61707 0.22982 0.52093 0.0
H254 H 0.62239 0.22752 0.47639 0.0
H255 H 0.62090 0.25074 0.49680 0.0
H256 H 0.61586 0.28307 0.49997 0.0
H257 H 0.56100 0.28571 0.48308 0.0
H258 H 0.56605 0.25338 0.47990 0.0
H259 H 0.57247 0.31282 0.49132 0.0
H260 H 0.61227 0.30620 0.50300 0.0
H261 H 0.58914 0.18223 0.56949 0.0
H262 H 0.59889 0.16155 0.55547 0.0
H263 H 0.58139 0.16651 0.60021 0.0
H264 H 0.57300 0.14761 0.64732 0.0
H265 H 0.62567 0.13760 0.68669 0.0
H266 H 0.63402 0.15654 0.63968 0.0
H267 H 0.58108 0.12823 0.69902 0.0
H268 H 0.61987 0.12380 0.71981 0.0
C269 C 0.91074 0.46277 0.71827 0.0
C270 C 0.91089 0.44744 0.69759 0.0
C271 C 0.89951 0.44809 0.66784 0.0
C272 C 0.89947 0.43285 0.64696 0.0
C273 C 0.88800 0.43362 0.61729 0.0
C274 C 0.87658 0.44961 0.60861 0.0
C275 C 0.87665 0.46485 0.62941 0.0
C276 C 0.88811 0.46408 0.65904 0.0
C277 C 0.86865 0.43535 0.55889 0.0
C278 C 0.85766 0.43995 0.52897 0.0
C279 C 0.83995 0.43801 0.53021 0.0
C280 C 0.82826 0.44552 0.50291 0.0
C281 C 0.83466 0.45315 0.47262 0.0
C282 C 0.85274 0.45368 0.47007 0.0
C283 C 0.86425 0.44709 0.49832 0.0
C284 C 0.88206 0.44882 0.49708 0.0
C285 C 0.83368 0.42981 0.55996 0.0
C286 C 0.82285 0.46076 0.44553 0.0
C287 C 0.81012 0.44562 0.50596 0.0
C288 C 0.78426 0.46448 0.51419 0.0
C289 C 0.77670 0.44952 0.50858 0.0
C290 C 0.75821 0.45137 0.50676 0.0
C291 C 0.74732 0.46818 0.51057 0.0
C292 C 0.75489 0.48312 0.51646 0.0
C293 C 0.77338 0.48127 0.51827 0.0
C294 C 0.72885 0.46999 0.50841 0.0
C295 C 0.72138 0.45499 0.50237 0.0
C296 C 0.85922 0.46160 0.44030 0.0
C297 C 0.87062 0.45489 0.38554 0.0
C298 C 0.87211 0.47273 0.38342 0.0
C299 C 0.88256 0.47821 0.35640 0.0
C300 C 0.89151 0.46581 0.33166 0.0
C301 C 0.88997 0.44797 0.33378 0.0
C302 C 0.87951 0.44250 0.36074 0.0
C303 C 0.90209 0.47118 0.30481 0.0
C304 C 0.91110 0.45864 0.28040 0.0
O305 O 0.86545 0.45053 0.57943 0.0
O306 O 0.86106 0.44935 0.41291 0.0
O307 O 0.80235 0.46273 0.51489 0.0
H308 H 0.90222 0.47453 0.71147 0.0
H309 H 0.91939 0.43565 0.70430 0.0
H310 H 0.90792 0.42101 0.65347 0.0
H311 H 0.88796 0.42236 0.60176 0.0
H312 H 0.86822 0.47669 0.62283 0.0
H313 H 0.88815 0.47535 0.67448 0.0
H314 H 0.86523 0.42481 0.57279 0.0
H315 H 0.88185 0.43235 0.55093 0.0
H316 H 0.88381 0.45710 0.47588 0.0
H317 H 0.89014 0.43645 0.49333 0.0
H318 H 0.88537 0.45427 0.52118 0.0
H319 H 0.84213 0.43002 0.58177 0.0
H320 H 0.83333 0.41673 0.55340 0.0
H321 H 0.82099 0.43641 0.56665 0.0
H322 H 0.82966 0.46652 0.42620 0.0
H323 H 0.81303 0.47039 0.45693 0.0
H324 H 0.81707 0.45104 0.43362 0.0
H325 H 0.80520 0.44217 0.48143 0.0
H326 H 0.80781 0.43693 0.52597 0.0
H327 H 0.78479 0.43709 0.50562 0.0
H328 H 0.75259 0.44031 0.50253 0.0
H329 H 0.74682 0.49556 0.51940 0.0
H330 H 0.77902 0.49233 0.52249 0.0
H331 H 0.72072 0.48240 0.51124 0.0
H332 H 0.72954 0.44260 0.49956 0.0
H333 H 0.85053 0.47312 0.43272 0.0
H334 H 0.87151 0.46447 0.44669 0.0
H335 H 0.86558 0.48185 0.40195 0.0
H336 H 0.88372 0.49142 0.35479 0.0
H337 H 0.89661 0.43881 0.31543 0.0
H338 H 0.87843 0.42929 0.36249 0.0
H339 H 0.90328 0.48437 0.30304 0.0
H340 H 0.90988 0.44546 0.28227 0.0
C341 C 0.46155 0.91102 0.71827 0.0
C342 C 0.47669 0.90435 0.69770 0.0
C343 C 0.47538 0.89340 0.66794 0.0
C344 C 0.49043 0.88659 0.64718 0.0
C345 C 0.48900 0.87561 0.61749 0.0
C346 C 0.47255 0.87145 0.60870 0.0
C347 C 0.45751 0.87830 0.62938 0.0
C348 C 0.45894 0.88926 0.65902 0.0
C349 C 0.48616 0.85728 0.55908 0.0
C350 C 0.48098 0.84848 0.52913 0.0
C351 C 0.48187 0.83013 0.53037 0.0
C352 C 0.47379 0.82193 0.50301 0.0
C353 C 0.46662 0.83165 0.47267 0.0
C354 C 0.46715 0.84973 0.47012 0.0
C355 C 0.47432 0.85816 0.49843 0.0
C356 C 0.47364 0.87651 0.49718 0.0
C357 C 0.48961 0.82029 0.56018 0.0
C358 C 0.45842 0.82338 0.44552 0.0
C359 C 0.47263 0.80408 0.50606 0.0
C360 C 0.45252 0.78694 0.51414 0.0
C361 C 0.46684 0.77282 0.50864 0.0
C362 C 0.46394 0.75540 0.50681 0.0
C363 C 0.44672 0.75213 0.51048 0.0
C364 C 0.43241 0.76625 0.51627 0.0
C365 C 0.43531 0.78367 0.51809 0.0
C366 C 0.44386 0.73470 0.50831 0.0
C367 C 0.45823 0.72066 0.50237 0.0
C368 C 0.45971 0.85964 0.44030 0.0
C369 C 0.46700 0.86791 0.38559 0.0
C370 C 0.44947 0.87733 0.38333 0.0
C371 C 0.44467 0.89007 0.35628 0.0
C372 C 0.45743 0.89339 0.33163 0.0
C373 C 0.47495 0.88393 0.33388 0.0
C374 C 0.47974 0.87118 0.36088 0.0
C375 C 0.45275 0.90622 0.30474 0.0
C376 C 0.46564 0.90954 0.28042 0.0
O377 O 0.47099 0.86087 0.57951 0.0
O378 O 0.47190 0.85602 0.41300 0.0
O379 O 0.45529 0.80402 0.51486 0.0
H380 H 0.44944 0.90784 0.71138 0.0
H381 H 0.48881 0.90750 0.70450 0.0
H382 H 0.50260 0.88966 0.65378 0.0
H383 H 0.50010 0.87057 0.60206 0.0
H384 H 0.44533 0.87525 0.62272 0.0
H385 H 0.44782 0.89432 0.67438 0.0
H386 H 0.49637 0.84922 0.57306 0.0
H387 H 0.48989 0.86897 0.55114 0.0
H388 H 0.46558 0.88191 0.47591 0.0
H389 H 0.48633 0.87898 0.49352 0.0
H390 H 0.46846 0.88220 0.52124 0.0
H391 H 0.48989 0.82873 0.58199 0.0
H392 H 0.50249 0.81414 0.55372 0.0
H393 H 0.48235 0.81071 0.56682 0.0
H394 H 0.45314 0.83266 0.42615 0.0
H395 H 0.44835 0.81797 0.45685 0.0
H396 H 0.46768 0.81335 0.43369 0.0
H397 H 0.47575 0.79768 0.48156 0.0
H398 H 0.48107 0.79793 0.52613 0.0
H399 H 0.47958 0.77528 0.50578 0.0
H400 H 0.47453 0.74493 0.50265 0.0
H401 H 0.41967 0.76381 0.51911 0.0
H402 H 0.42472 0.79416 0.52223 0.0
H403 H 0.43114 0.73220 0.51104 0.0
H404 H 0.47094 0.72320 0.49966 0.0
H405 H 0.44784 0.85619 0.43262 0.0
H406 H 0.45759 0.87306 0.44667 0.0
H407 H 0.44009 0.87493 0.40180 0.0
H408 H 0.43170 0.89709 0.35457 0.0
H409 H 0.48437 0.88642 0.31560 0.0
H410 H 0.49272 0.86423 0.36273 0.0
H411 H 0.43979 0.91327 0.30287 0.0
H412 H 0.47858 0.90247 0.28239 0.0
H413 H 0.44095 0.55673 0.53111 0.0
H414 H 0.41995 0.54018 0.53164 0.0
H415 H 0.41163 0.57009 0.52891 0.0
H416 H 0.33132 0.57983 0.52504 0.0
H417 H 0.35233 0.59639 0.52451 0.0
H418 H 0.36065 0.56647 0.52724 0.0
H419 H 0.33184 0.57887 0.48193 0.0
H420 H 0.35285 0.59543 0.48141 0.0
H421 H 0.36117 0.56551 0.48414 0.0
H422 H 0.44148 0.55577 0.48800 0.0
H423 H 0.42047 0.53922 0.48853 0.0
H424 H 0.41215 0.56913 0.48580 0.0
C425 C 0.43939 0.54930 0.51005 0.0
C426 C 0.42217 0.54675 0.50959 0.0
C427 C 0.40999 0.56264 0.50784 0.0
C428 C 0.39256 0.55982 0.50740 0.0
C429 C 0.33341 0.58630 0.50300 0.0
C430 C 0.35062 0.58885 0.50345 0.0
C431 C 0.36281 0.57296 0.50520 0.0
C432 C 0.38024 0.57578 0.50564 0.0
H433 H 0.52900 0.43236 0.51714 0.0
H434 H 0.55875 0.42701 0.51750 0.0
H435 H 0.54462 0.40378 0.51884 0.0
H436 H 0.60647 0.34109 0.52261 0.0
H437 H 0.57672 0.34643 0.52225 0.0
H438 H 0.59085 0.36966 0.52091 0.0
H439 H 0.60657 0.34043 0.47947 0.0
H440 H 0.57681 0.34578 0.47911 0.0
H441 H 0.59095 0.36900 0.47777 0.0
H442 H 0.52909 0.43170 0.47400 0.0
H443 H 0.55885 0.42636 0.47436 0.0
H444 H 0.54471 0.40313 0.47570 0.0
C445 C 0.53555 0.43475 0.49542 0.0
C446 C 0.55210 0.42400 0.49608 0.0
C447 C 0.55124 0.40614 0.49712 0.0
C448 C 0.56818 0.39539 0.49778 0.0
C449 C 0.60002 0.33804 0.50119 0.0
C450 C 0.58346 0.34879 0.50053 0.0
C451 C 0.58432 0.36665 0.49949 0.0
C452 C 0.56738 0.37740 0.49883 0.0
H453 H 0.59343 0.48860 0.52791 0.0
H454 H 0.61294 0.50671 0.53242 0.0
H455 H 0.62323 0.47718 0.52581 0.0
H456 H 0.70294 0.47293 0.52622 0.0
H457 H 0.68343 0.45482 0.52171 0.0
H458 H 0.67315 0.48435 0.52833 0.0
H459 H 0.70262 0.47525 0.48333 0.0
H460 H 0.68310 0.45714 0.47883 0.0
H461 H 0.67282 0.48666 0.48544 0.0
H462 H 0.59310 0.49092 0.48503 0.0
H463 H 0.61262 0.50903 0.48953 0.0
H464 H 0.62290 0.47950 0.48292 0.0
C465 C 0.59458 0.49687 0.50813 0.0
C466 C 0.61134 0.50063 0.50929 0.0
C467 C 0.62444 0.48548 0.50603 0.0
C468 C 0.64140 0.48953 0.50726 0.0
C469 C 0.70147 0.46697 0.50312 0.0
C470 C 0.68470 0.46321 0.50196 0.0
C471 C 0.67160 0.47836 0.50522 0.0
C472 C 0.65464 0.47432 0.50399 0.0
H473 H 0.51880 0.60037 0.51376 0.0
H474 H 0.48923 0.60775 0.51970 0.0
H475 H 0.50507 0.62960 0.51544 0.0
H476 H 0.44720 0.69570 0.52490 0.0
H477 H 0.47676 0.68832 0.51896 0.0
H478 H 0.46093 0.66647 0.52322 0.0
H479 H 0.44504 0.69566 0.48197 0.0
H480 H 0.47461 0.68828 0.47602 0.0
H481 H 0.45877 0.66643 0.48029 0.0
H482 H 0.51665 0.60032 0.47083 0.0
H483 H 0.48708 0.60770 0.47677 0.0
H484 H 0.50292 0.62955 0.47250 0.0
C485 C 0.51099 0.59813 0.49381 0.0
C486 C 0.49508 0.60989 0.49668 0.0
C487 C 0.49719 0.62740 0.49550 0.0
C488 C 0.48089 0.63919 0.49845 0.0
C489 C 0.45285 0.69789 0.50192 0.0
C490 C 0.46876 0.68613 0.49905 0.0
C491 C 0.46666 0.66862 0.50023 0.0
C492 C 0.48295 0.65684 0.49728 0.0
C493 C 0.05271 0.56656 0.88258 0.0
C494 C 0.06355 0.57307 0.85772 0.0
C495 C 0.07440 0.57960 0.83283 0.0
C496 C 0.08520 0.58612 0.80791 0.0
C497 C 0.09595 0.59267 0.78286 0.0
C498 C 0.10665 0.59923 0.75776 0.0
C499 C 0.54604 0.06585 0.87986 0.0
C500 C 0.55589 0.07412 0.85584 0.0
C501 C 0.56575 0.08240 0.83179 0.0
C502 C 0.57563 0.09066 0.80784 0.0
C503 C 0.58557 0.09894 0.78398 0.0
C504 C 0.59555 0.10720 0.76021 0.0
C505 C 0.96141 0.52203 0.12163 0.0
C506 C 0.95392 0.51161 0.14584 0.0
C507 C 0.94642 0.50119 0.17008 0.0
C508 C 0.93895 0.49079 0.19436 0.0
C509 C 0.93152 0.48041 0.21878 0.0
C510 C 0.92413 0.47005 0.24326 0.0
C511 C 0.50073 0.97537 0.11829 0.0
C512 C 0.49379 0.96519 0.14386 0.0
C513 C 0.48684 0.95501 0.16946 0.0
C514 C 0.47994 0.94484 0.19508 0.0
C515 C 0.47310 0.93465 0.22082 0.0
C516 C 0.46630 0.92447 0.24658 0.0
C517 C 0.56766 0.05457 0.11938 0.0
C518 C 0.57402 0.06526 0.14496 0.0
C519 C 0.58038 0.07595 0.17056 0.0
C520 C 0.58678 0.08661 0.19612 0.0
C521 C 0.59326 0.09722 0.22172 0.0
C522 C 0.59978 0.10780 0.24730 0.0
C523 C 0.06830 0.54628 0.12224 0.0
C524 C 0.07621 0.55627 0.14677 0.0
C525 C 0.08413 0.56628 0.17132 0.0
C526 C 0.09208 0.57627 0.19577 0.0
C527 C 0.10011 0.58626 0.22016 0.0
C528 C 0.10816 0.59624 0.24448 0.0
C529 C 0.97728 0.50186 0.88261 0.0
C530 C 0.96700 0.49484 0.85719 0.0
C531 C 0.95670 0.48782 0.83175 0.0
C532 C 0.94638 0.48083 0.80640 0.0
C533 C 0.93598 0.47386 0.78110 0.0
C534 C 0.92556 0.46691 0.75587 0.0
C535 C 0.52227 0.96396 0.87964 0.0
C536 C 0.51203 0.95615 0.85541 0.0
C537 C 0.50178 0.94834 0.83116 0.0
C538 C 0.49151 0.94056 0.80700 0.0
C539 C 0.48116 0.93279 0.78290 0.0
C540 C 0.47078 0.92505 0.75888 0.0
