data_{}
_symmetry_space_group_name_H-M    P1
_symmetry_Int_Tables_number       1
_symmetry_cell_setting            triclinic
loop_
_symmetry_equiv_pos_as_xyz
'x, y, z'
_cell_length_a     54.968
_cell_length_b     61.262
_cell_length_c     26.475
_cell_angle_alpha  96.393
_cell_angle_beta   90.015
_cell_angle_gamma  88.553
loop_
_atom_site_label
_atom_site_type_symbol
_atom_site_fract_x
_atom_site_fract_y
_atom_site_fract_z
_atom_type_partial_charge
C0 C 0.03794 0.04270 0.12206 0.0
C1 C 0.03680 0.02046 0.12177 0.0
C2 C 0.01479 0.00972 0.12494 0.0
H3 H 0.95613 0.02059 0.13463 0.0
C4 C 0.99108 0.97719 0.12921 0.0
C5 C 0.01285 0.98662 0.12582 0.0
H6 H 0.01696 0.07067 0.12425 0.0
C7 C 0.96942 0.99001 0.13193 0.0
C8 C 0.97055 0.01226 0.13222 0.0
C9 C 0.99257 0.02300 0.12904 0.0
C10 C 0.99451 0.04610 0.12817 0.0
C11 C 0.01628 0.05553 0.12478 0.0
H12 H 0.99039 0.96205 0.12974 0.0
H13 H 0.05123 0.01213 0.11935 0.0
O14 O 0.51794 0.54305 0.74796 0.0
O15 O 0.51605 0.54433 0.66509 0.0
Mg16 Mg 0.50139 0.51992 0.49209 0.0
Mg17 Mg 0.50597 0.51279 0.76172 0.0
O18 O 0.53661 0.51285 0.51175 0.0
Mg19 Mg 0.50368 0.51636 0.62691 0.0
O20 O 0.51206 0.55027 0.47462 0.0
O21 O 0.53689 0.51078 0.59441 0.0
O22 O 0.50858 0.57331 0.54579 0.0
O23 O 0.54059 0.50470 0.78485 0.0
H24 H 0.47733 0.53563 0.56022 0.0
O25 O 0.56064 0.48980 0.71575 0.0
O26 O 0.48942 0.48967 0.50586 0.0
O27 O 0.49131 0.48838 0.58872 0.0
H28 H 0.50809 0.48631 0.69085 0.0
O29 O 0.47075 0.51986 0.74206 0.0
O30 O 0.47047 0.52194 0.65940 0.0
O31 O 0.49530 0.48244 0.77920 0.0
O32 O 0.49878 0.45940 0.70802 0.0
O33 O 0.46678 0.52802 0.46896 0.0
O34 O 0.44672 0.54292 0.53807 0.0
O35 O 0.49220 0.53476 0.56783 0.0
O36 O 0.51517 0.49795 0.68599 0.0
H37 H 0.53003 0.49709 0.69359 0.0
H38 H 0.49927 0.54641 0.56296 0.0
C39 C 0.52024 0.55244 0.70916 0.0
C40 C 0.54682 0.50961 0.55211 0.0
C41 C 0.51232 0.56911 0.49881 0.0
C42 C 0.55867 0.49486 0.76295 0.0
C43 C 0.48712 0.48027 0.54466 0.0
C44 C 0.46054 0.52311 0.70170 0.0
C45 C 0.49504 0.46360 0.75500 0.0
C46 C 0.44869 0.53785 0.49086 0.0
C47 C 0.51225 0.37838 0.49894 0.0
C48 C 0.52559 0.36040 0.46322 0.0
C49 C 0.51228 0.34911 0.41663 0.0
C50 C 0.52535 0.33104 0.38062 0.0
C51 C 0.51185 0.31980 0.33417 0.0
C52 C 0.48533 0.32663 0.32392 0.0
C53 C 0.47232 0.34473 0.35980 0.0
C54 C 0.48579 0.35595 0.40618 0.0
C55 C 0.48848 0.30113 0.24305 0.0
C56 C 0.47206 0.29475 0.19721 0.0
C57 C 0.45528 0.27507 0.19732 0.0
C58 C 0.43559 0.27141 0.15619 0.0
C59 C 0.43465 0.28568 0.11182 0.0
C60 C 0.45305 0.30407 0.10936 0.0
C61 C 0.47174 0.30863 0.15218 0.0
C62 C 0.48881 0.32817 0.15202 0.0
C63 C 0.45686 0.26026 0.24073 0.0
C64 C 0.41475 0.28202 0.07104 0.0
C65 C 0.41658 0.25370 0.15958 0.0
C66 C 0.37284 0.25000 0.17505 0.0
C67 C 0.37817 0.22524 0.16210 0.0
C68 C 0.35711 0.20906 0.15839 0.0
C69 C 0.33075 0.21768 0.16763 0.0
C70 C 0.32545 0.24245 0.18101 0.0
C71 C 0.34652 0.25863 0.18471 0.0
C72 C 0.30973 0.20146 0.16338 0.0
C73 C 0.31518 0.17673 0.14977 0.0
C74 C 0.45193 0.31875 0.06588 0.0
C75 C 0.46842 0.32085 0.98055 0.0
C76 C 0.45395 0.34273 0.98182 0.0
C77 C 0.45926 0.35861 0.94227 0.0
C78 C 0.47908 0.35256 0.90167 0.0
C79 C 0.49349 0.33064 0.90039 0.0
C80 C 0.48816 0.31476 0.93986 0.0
C81 C 0.48463 0.36845 0.86236 0.0
C82 C 0.50464 0.36232 0.82223 0.0
O83 O 0.47208 0.31592 0.27829 0.0
O84 O 0.46410 0.30580 0.02070 0.0
O85 O 0.39337 0.26588 0.17703 0.0
H86 H 0.49262 0.38327 0.49074 0.0
H87 H 0.54522 0.35545 0.47129 0.0
H88 H 0.54497 0.32598 0.38835 0.0
H89 H 0.52148 0.30645 0.30741 0.0
H90 H 0.45271 0.34982 0.35198 0.0
H91 H 0.47616 0.36933 0.43282 0.0
H92 H 0.49471 0.28603 0.26162 0.0
H93 H 0.50477 0.31051 0.23100 0.0
H94 H 0.48266 0.33882 0.12149 0.0
H95 H 0.50825 0.32186 0.14375 0.0
H96 H 0.48804 0.33832 0.19081 0.0
H97 H 0.46610 0.26943 0.27506 0.0
H98 H 0.46803 0.24476 0.22732 0.0
H99 H 0.43783 0.25550 0.25176 0.0
H100 H 0.41620 0.29483 0.04314 0.0
H101 H 0.39614 0.28368 0.09029 0.0
H102 H 0.41708 0.26485 0.04982 0.0
H103 H 0.41387 0.24422 0.12050 0.0
H104 H 0.42248 0.24199 0.18812 0.0
H105 H 0.39770 0.21890 0.15506 0.0
H106 H 0.36101 0.19071 0.14869 0.0
H107 H 0.30594 0.24882 0.18803 0.0
H108 H 0.34263 0.27699 0.19439 0.0
H109 H 0.29017 0.20774 0.17023 0.0
H110 H 0.33475 0.17050 0.14297 0.0
H111 H 0.43232 0.32318 0.05639 0.0
H112 H 0.46241 0.33435 0.07737 0.0
H113 H 0.43944 0.34723 0.01221 0.0
H114 H 0.44860 0.37485 0.94315 0.0
H115 H 0.50817 0.32621 0.87029 0.0
H116 H 0.49892 0.29859 0.93919 0.0
H117 H 0.47402 0.38471 0.86299 0.0
H118 H 0.51521 0.34605 0.82175 0.0
C119 C 0.67931 0.50938 0.86156 0.0
C120 C 0.66525 0.49291 0.88957 0.0
C121 C 0.67714 0.48297 0.93474 0.0
C122 C 0.66335 0.46641 0.96306 0.0
C123 C 0.67544 0.45652 0.00814 0.0
C124 C 0.70130 0.46318 0.02469 0.0
C125 C 0.71504 0.47978 0.99650 0.0
C126 C 0.70297 0.48966 0.95150 0.0
C127 C 0.69597 0.44058 0.09715 0.0
C128 C 0.71085 0.43549 0.14362 0.0
C129 C 0.72820 0.41530 0.13979 0.0
C130 C 0.74644 0.41270 0.18290 0.0
C131 C 0.74529 0.42868 0.23213 0.0
C132 C 0.72628 0.44768 0.23765 0.0
C133 C 0.70907 0.45111 0.19328 0.0
C134 C 0.69143 0.47116 0.19708 0.0
C135 C 0.72870 0.39884 0.09126 0.0
C136 C 0.76375 0.42606 0.27493 0.0
C137 C 0.76607 0.39433 0.17676 0.0
C138 C 0.81039 0.38906 0.16679 0.0
C139 C 0.80536 0.36474 0.17102 0.0
C140 C 0.82674 0.34813 0.17280 0.0
C141 C 0.85310 0.35588 0.17035 0.0
C142 C 0.85811 0.38019 0.16569 0.0
C143 C 0.83673 0.39680 0.16391 0.0
C144 C 0.87441 0.33924 0.17265 0.0
C145 C 0.86924 0.31498 0.17754 0.0
C146 C 0.72533 0.46404 0.28614 0.0
C147 C 0.70566 0.46967 0.36987 0.0
C148 C 0.71946 0.49133 0.37783 0.0
C149 C 0.71221 0.50888 0.42177 0.0
C150 C 0.69113 0.50474 0.45751 0.0
C151 C 0.67739 0.48305 0.44956 0.0
C152 C 0.68466 0.46549 0.40570 0.0
C153 C 0.68364 0.52230 0.50118 0.0
C154 C 0.66240 0.51806 0.53639 0.0
O155 O 0.71317 0.45379 0.06907 0.0
O156 O 0.71192 0.45295 0.32544 0.0
O157 O 0.78949 0.40543 0.16673 0.0
H158 H 0.69844 0.51417 0.87437 0.0
H159 H 0.64612 0.48807 0.87688 0.0
H160 H 0.64422 0.46148 0.95067 0.0
H161 H 0.66527 0.44429 0.02922 0.0
H162 H 0.73415 0.48475 0.00900 0.0
H163 H 0.71314 0.50191 0.93054 0.0
H164 H 0.69091 0.42484 0.07273 0.0
H165 H 0.67898 0.45082 0.10974 0.0
H166 H 0.69611 0.48287 0.23206 0.0
H167 H 0.67193 0.46555 0.20036 0.0
H168 H 0.69332 0.47992 0.16154 0.0
H169 H 0.72046 0.40701 0.05834 0.0
H170 H 0.71754 0.38398 0.09802 0.0
H171 H 0.74822 0.39321 0.08160 0.0
H172 H 0.76087 0.44001 0.30679 0.0
H173 H 0.78296 0.42660 0.25900 0.0
H174 H 0.76117 0.40962 0.29035 0.0
H175 H 0.76763 0.38618 0.21333 0.0
H176 H 0.76160 0.38162 0.14347 0.0
H177 H 0.78582 0.35906 0.17305 0.0
H178 H 0.82306 0.33011 0.17606 0.0
H179 H 0.87763 0.38590 0.16368 0.0
H180 H 0.84039 0.41484 0.16068 0.0
H181 H 0.89397 0.34488 0.17081 0.0
H182 H 0.84967 0.30940 0.17936 0.0
H183 H 0.74440 0.46841 0.30009 0.0
H184 H 0.71481 0.47955 0.27801 0.0
H185 H 0.73492 0.49440 0.35103 0.0
H186 H 0.72236 0.52495 0.42773 0.0
H187 H 0.66178 0.48003 0.47607 0.0
H188 H 0.67441 0.44948 0.39953 0.0
H189 H 0.69375 0.53840 0.50739 0.0
H190 H 0.65234 0.50195 0.53004 0.0
C191 C 0.32944 0.52443 0.39251 0.0
C192 C 0.30977 0.51356 0.35743 0.0
C193 C 0.30004 0.52526 0.31272 0.0
C194 C 0.28031 0.51463 0.27738 0.0
C195 C 0.27065 0.52650 0.23282 0.0
C196 C 0.28071 0.54896 0.22378 0.0
C197 C 0.30047 0.55953 0.25899 0.0
C198 C 0.31012 0.54769 0.30349 0.0
C199 C 0.25519 0.54655 0.14486 0.0
C200 C 0.25112 0.56041 0.10067 0.0
C201 C 0.23063 0.57806 0.10384 0.0
C202 C 0.22966 0.59466 0.06435 0.0
C203 C 0.24719 0.59197 0.01856 0.0
C204 C 0.26619 0.57295 0.01302 0.0
C205 C 0.26818 0.55718 0.05420 0.0
C206 C 0.28848 0.53930 0.05096 0.0
C207 C 0.21250 0.58022 0.14868 0.0
C208 C 0.24622 0.60877 0.97942 0.0
C209 C 0.21142 0.61416 0.07079 0.0
C210 C 0.21024 0.65440 0.08980 0.0
C211 C 0.18285 0.65244 0.07878 0.0
C212 C 0.16673 0.67332 0.07811 0.0
C213 C 0.17804 0.69611 0.08845 0.0
C214 C 0.20542 0.69806 0.09989 0.0
C215 C 0.22153 0.67718 0.10056 0.0
C216 C 0.16190 0.71694 0.08723 0.0
C217 C 0.13456 0.71485 0.07554 0.0
C218 C 0.28415 0.57039 0.96809 0.0
C219 C 0.28832 0.55219 0.88112 0.0
C220 C 0.31367 0.56229 0.88136 0.0
C221 C 0.33230 0.55397 0.83980 0.0
C222 C 0.32553 0.53552 0.79822 0.0
C223 C 0.30013 0.52548 0.79798 0.0
C224 C 0.28151 0.53383 0.83946 0.0
C225 C 0.34414 0.52698 0.75688 0.0
C226 C 0.33724 0.50840 0.71577 0.0
O227 O 0.27157 0.56057 0.17999 0.0
O228 O 0.27050 0.55955 0.92313 0.0
O229 O 0.22613 0.63397 0.08881 0.0
H230 H 0.33672 0.54107 0.38523 0.0
H231 H 0.30243 0.49694 0.36458 0.0
H232 H 0.27286 0.49802 0.28420 0.0
H233 H 0.25607 0.51867 0.20655 0.0
H234 H 0.30796 0.57613 0.25207 0.0
H235 H 0.32472 0.55552 0.32963 0.0
H236 H 0.23727 0.54366 0.16448 0.0
H237 H 0.26472 0.53027 0.13071 0.0
H238 H 0.30190 0.54226 0.01977 0.0
H239 H 0.28025 0.52242 0.04187 0.0
H240 H 0.29836 0.54007 0.08896 0.0
H241 H 0.22066 0.57199 0.18158 0.0
H242 H 0.19492 0.57178 0.13590 0.0
H243 H 0.20832 0.59829 0.16156 0.0
H244 H 0.26133 0.60473 0.95012 0.0
H245 H 0.24883 0.62592 0.99990 0.0
H246 H 0.22780 0.60818 0.95960 0.0
H247 H 0.20258 0.61641 0.03269 0.0
H248 H 0.19692 0.61149 0.10011 0.0
H249 H 0.17453 0.63553 0.07091 0.0
H250 H 0.14645 0.67190 0.06984 0.0
H251 H 0.21376 0.71495 0.10774 0.0
H252 H 0.24183 0.67857 0.10881 0.0
H253 H 0.17016 0.73387 0.09491 0.0
H254 H 0.12635 0.69790 0.06790 0.0
H255 H 0.29097 0.58702 0.95957 0.0
H256 H 0.30019 0.55936 0.97738 0.0
H257 H 0.31869 0.57581 0.91245 0.0
H258 H 0.35112 0.56138 0.83990 0.0
H259 H 0.29518 0.51182 0.76715 0.0
H260 H 0.26276 0.52632 0.83956 0.0
H261 H 0.36298 0.53435 0.75673 0.0
H262 H 0.31839 0.50107 0.71607 0.0
C263 C 0.49370 0.65550 0.75520 0.0
C264 C 0.51479 0.64528 0.78366 0.0
C265 C 0.52588 0.65838 0.83073 0.0
C266 C 0.54704 0.64841 0.85953 0.0
C267 C 0.55805 0.66168 0.90651 0.0
C268 C 0.54791 0.68488 0.92448 0.0
C269 C 0.52672 0.69481 0.89580 0.0
C270 C 0.51572 0.68156 0.84890 0.0
C271 C 0.57625 0.68458 0.99872 0.0
C272 C 0.58163 0.70000 0.04689 0.0
C273 C 0.60161 0.71707 0.04611 0.0
C274 C 0.60367 0.73517 0.09095 0.0
C275 C 0.58789 0.73460 0.13884 0.0
C276 C 0.56950 0.71620 0.14130 0.0
C277 C 0.56635 0.69891 0.09520 0.0
C278 C 0.54656 0.68160 0.09593 0.0
C279 C 0.61804 0.71712 0.99891 0.0
C280 C 0.58993 0.75289 0.18339 0.0
C281 C 0.62125 0.75405 0.08787 0.0
C282 C 0.62097 0.79381 0.08167 0.0
C283 C 0.64873 0.79147 0.08765 0.0
C284 C 0.66442 0.81205 0.09250 0.0
C285 C 0.65233 0.83493 0.09136 0.0
C286 C 0.62457 0.83725 0.08494 0.0
C287 C 0.60888 0.81666 0.08010 0.0
C288 C 0.66807 0.85548 0.09672 0.0
C289 C 0.69580 0.85302 0.10335 0.0
C290 C 0.55325 0.71575 0.18843 0.0
C291 C 0.55258 0.70068 0.27042 0.0
C292 C 0.52708 0.71155 0.27757 0.0
C293 C 0.51016 0.70519 0.31956 0.0
C294 C 0.51877 0.68793 0.35417 0.0
C295 C 0.54430 0.67712 0.34705 0.0
C296 C 0.56123 0.68351 0.30514 0.0
C297 C 0.50185 0.68135 0.39587 0.0
C298 C 0.51058 0.66394 0.42995 0.0
O299 O 0.55837 0.69789 0.97070 0.0
O300 O 0.56869 0.70607 0.22779 0.0
O301 O 0.60555 0.77374 0.07861 0.0
H302 H 0.48637 0.67270 0.76907 0.0
H303 H 0.52218 0.62808 0.76991 0.0
H304 H 0.55455 0.63123 0.84609 0.0
H305 H 0.57369 0.65433 0.92794 0.0
H306 H 0.51918 0.71196 0.90934 0.0
H307 H 0.50006 0.68891 0.82758 0.0
H308 H 0.59347 0.68046 0.97521 0.0
H309 H 0.56756 0.66898 0.00917 0.0
H310 H 0.53424 0.68608 0.13035 0.0
H311 H 0.55543 0.66471 0.09823 0.0
H312 H 0.53532 0.68128 0.05967 0.0
H313 H 0.60887 0.70789 0.96456 0.0
H314 H 0.63619 0.70860 0.00614 0.0
H315 H 0.62139 0.73473 0.99119 0.0
H316 H 0.57600 0.75030 0.21391 0.0
H317 H 0.58627 0.76948 0.16882 0.0
H318 H 0.60904 0.75249 0.20009 0.0
H319 H 0.63140 0.75743 0.12538 0.0
H320 H 0.63472 0.74990 0.05525 0.0
H321 H 0.65763 0.77451 0.08871 0.0
H322 H 0.68498 0.81036 0.09706 0.0
H323 H 0.61563 0.85419 0.08391 0.0
H324 H 0.58830 0.81834 0.07557 0.0
H325 H 0.65922 0.87246 0.09586 0.0
H326 H 0.70459 0.83601 0.10418 0.0
H327 H 0.54644 0.73297 0.20348 0.0
H328 H 0.53714 0.70476 0.17813 0.0
H329 H 0.52070 0.72417 0.25158 0.0
H330 H 0.49124 0.71317 0.32490 0.0
H331 H 0.55062 0.66435 0.37272 0.0
H332 H 0.58007 0.67543 0.29957 0.0
H333 H 0.48293 0.68930 0.40146 0.0
H334 H 0.52951 0.65603 0.42422 0.0
C335 C 0.06419 0.05378 0.13118 0.0
C336 C 0.08876 0.06538 0.13280 0.0
C337 C 0.11333 0.07697 0.13443 0.0
C338 C 0.13729 0.06342 0.13497 0.0
C339 C 0.16184 0.07503 0.13659 0.0
C340 C 0.16244 0.10019 0.13766 0.0
C341 C 0.13849 0.11375 0.13713 0.0
C342 C 0.11393 0.10214 0.13552 0.0
C343 C 0.18701 0.11179 0.13924 0.0
C344 C 0.18762 0.13695 0.14029 0.0
C345 C 0.21219 0.14854 0.14187 0.0
C346 C 0.23614 0.13497 0.14245 0.0
C347 C 0.23553 0.10981 0.14141 0.0
C348 C 0.21096 0.09822 0.13982 0.0
C349 C 0.26071 0.14656 0.14404 0.0
C350 C 0.28530 0.15812 0.14566 0.0
H351 H 0.13684 0.04479 0.13418 0.0
H352 H 0.17958 0.06499 0.13698 0.0
H353 H 0.13893 0.13237 0.13792 0.0
H354 H 0.09620 0.11217 0.13514 0.0
H355 H 0.16990 0.14700 0.13988 0.0
H356 H 0.21265 0.16717 0.14261 0.0
H357 H 0.25326 0.09976 0.14182 0.0
H358 H 0.21050 0.07959 0.13906 0.0
C359 C 0.97439 0.07027 0.13569 0.0
C360 C 0.96509 0.09434 0.14018 0.0
C361 C 0.95579 0.11840 0.14467 0.0
C362 C 0.92826 0.12368 0.14377 0.0
C363 C 0.91897 0.14775 0.14827 0.0
C364 C 0.93720 0.16653 0.15366 0.0
C365 C 0.96473 0.16125 0.15455 0.0
C366 C 0.97402 0.13719 0.15004 0.0
C367 C 0.92790 0.19059 0.15820 0.0
C368 C 0.94613 0.20939 0.16361 0.0
C369 C 0.93682 0.23345 0.16814 0.0
C370 C 0.90929 0.23871 0.16721 0.0
C371 C 0.89106 0.21992 0.16178 0.0
C372 C 0.90037 0.19586 0.15726 0.0
C373 C 0.89998 0.26277 0.17173 0.0
C374 C 0.89063 0.28683 0.17622 0.0
H375 H 0.91476 0.10977 0.13978 0.0
H376 H 0.89859 0.15165 0.14762 0.0
H377 H 0.97823 0.17516 0.15854 0.0
H378 H 0.99439 0.13328 0.15067 0.0
H379 H 0.96651 0.20549 0.16428 0.0
H380 H 0.95031 0.24737 0.17219 0.0
H381 H 0.87068 0.22382 0.16111 0.0
H382 H 0.88688 0.18194 0.15323 0.0
C383 C 0.03297 0.96244 0.11829 0.0
C384 C 0.04228 0.93838 0.11378 0.0
C385 C 0.05160 0.91432 0.10928 0.0
C386 C 0.03338 0.89555 0.10708 0.0
C387 C 0.04271 0.87150 0.10257 0.0
C388 C 0.07025 0.86621 0.10026 0.0
C389 C 0.08847 0.88499 0.10248 0.0
C390 C 0.07914 0.90904 0.10700 0.0
C391 C 0.07957 0.84215 0.09571 0.0
C392 C 0.10711 0.83686 0.09338 0.0
C393 C 0.11642 0.81280 0.08884 0.0
C394 C 0.09819 0.79404 0.08667 0.0
C395 C 0.07065 0.79933 0.08901 0.0
C396 C 0.06135 0.82339 0.09355 0.0
C397 C 0.10750 0.76997 0.08214 0.0
C398 C 0.11677 0.74590 0.07762 0.0
H399 H 0.01299 0.89946 0.10879 0.0
H400 H 0.02923 0.85760 0.10092 0.0
H401 H 0.10886 0.88108 0.10076 0.0
H402 H 0.09262 0.92294 0.10866 0.0
H403 H 0.12061 0.85075 0.09501 0.0
H404 H 0.13681 0.80888 0.08708 0.0
H405 H 0.05716 0.78544 0.08739 0.0
H406 H 0.04096 0.82731 0.09529 0.0
C407 C 0.94316 0.97894 0.12281 0.0
C408 C 0.91859 0.96734 0.12120 0.0
C409 C 0.89402 0.95575 0.11960 0.0
C410 C 0.87006 0.96941 0.12290 0.0
C411 C 0.84550 0.95780 0.12129 0.0
C412 C 0.84491 0.93254 0.11638 0.0
C413 C 0.86887 0.91887 0.11308 0.0
C414 C 0.89343 0.93048 0.11471 0.0
C415 C 0.82034 0.92094 0.11472 0.0
C416 C 0.81974 0.89567 0.10978 0.0
C417 C 0.79517 0.88408 0.10814 0.0
C418 C 0.77121 0.89775 0.11148 0.0
C419 C 0.77181 0.92302 0.11643 0.0
C420 C 0.79638 0.93461 0.11806 0.0
C421 C 0.74663 0.88617 0.10984 0.0
C422 C 0.72204 0.87461 0.10824 0.0
H423 H 0.87049 0.98811 0.12655 0.0
H424 H 0.82776 0.96791 0.12372 0.0
H425 H 0.86844 0.90017 0.10944 0.0
H426 H 0.91117 0.92038 0.11229 0.0
H427 H 0.83747 0.88555 0.10733 0.0
H428 H 0.79471 0.86538 0.10445 0.0
H429 H 0.75407 0.93314 0.11888 0.0
H430 H 0.79683 0.95331 0.12174 0.0
N431 N 0.49817 0.42601 0.77856 0.0
N432 N 0.50304 0.40169 0.78586 0.0
N433 N 0.60680 0.50090 0.79813 0.0
N434 N 0.63319 0.50729 0.81103 0.0
N435 N 0.59517 0.51520 0.55686 0.0
N436 N 0.62199 0.52182 0.56141 0.0
N437 N 0.40056 0.53181 0.45567 0.0
N438 N 0.37418 0.52541 0.44276 0.0
N439 N 0.41219 0.51751 0.69694 0.0
N440 N 0.38537 0.51090 0.69238 0.0
N441 N 0.50918 0.60671 0.47527 0.0
N442 N 0.50430 0.63102 0.46797 0.0
N443 N 0.49673 0.43924 0.53797 0.0
N444 N 0.50776 0.41578 0.53533 0.0
N445 N 0.51063 0.59348 0.71586 0.0
N446 N 0.49960 0.61694 0.71851 0.0
