data_{}
_symmetry_space_group_name_H-M    P1
_symmetry_Int_Tables_number       1
_symmetry_cell_setting            triclinic
loop_
_symmetry_equiv_pos_as_xyz
'x, y, z'
_cell_length_a     77.174
_cell_length_b     79.308
_cell_length_c     36.030
_cell_angle_alpha  90.044
_cell_angle_beta   90.802
_cell_angle_gamma  122.739
loop_
_atom_site_label
_atom_site_type_symbol
_atom_site_fract_x
_atom_site_fract_y
_atom_site_fract_z
_atom_type_partial_charge
C0 C 0.91416 0.87989 0.00369 0.0
C1 C 0.92134 0.89319 0.03888 0.0
C2 C 0.93940 0.91521 0.03682 0.0
C3 C 0.94680 0.92869 0.07180 0.0
C4 C 0.96493 0.95070 0.06946 0.0
C5 C 0.97562 0.95916 0.03218 0.0
C6 C 0.96817 0.94571 0.99722 0.0
C7 C 0.95008 0.92373 0.99990 0.0
C8 C 0.99642 0.99253 0.06460 0.0
C9 C 0.01278 0.01407 0.05357 0.0
C10 C 0.03575 0.02156 0.05665 0.0
C11 C 0.05176 0.04163 0.03890 0.0
C12 C 0.04512 0.05521 0.02226 0.0
C13 C 0.02229 0.04845 0.02247 0.0
C14 C 0.00610 0.02783 0.03809 0.0
C15 C 0.98308 0.02032 0.03551 0.0
C16 C 0.04247 0.00828 0.07459 0.0
C17 C 0.06124 0.07520 0.00428 0.0
C18 C 0.07441 0.04807 0.03724 0.0
C19 C 0.10042 0.05311 0.99218 0.0
C20 C 0.11536 0.06126 0.02579 0.0
C21 C 0.13852 0.07044 0.02017 0.0
C22 C 0.14670 0.07146 0.98096 0.0
C23 C 0.13171 0.06315 0.94738 0.0
C24 C 0.10855 0.05397 0.95300 0.0
C25 C 0.16990 0.08084 0.97544 0.0
C26 C 0.18479 0.08920 0.00915 0.0
C27 C 0.01541 0.06168 0.00518 0.0
C28 C 0.00995 0.08843 0.02191 0.0
C29 C 0.00281 0.08713 0.98133 0.0
C30 C 0.99128 0.09725 0.96990 0.0
C31 C 0.98688 0.10859 0.99990 0.0
C32 C 0.99408 0.10991 0.03968 0.0
C33 C 0.00563 0.09983 0.05109 0.0
C34 C 0.97518 0.11856 0.98795 0.0
C35 C 0.97071 0.12970 0.01746 0.0
O36 O 0.99320 0.98071 0.02953 0.0
O37 O 0.02033 0.07772 0.03353 0.0
O38 O 0.07786 0.04472 0.99754 0.0
H39 H 0.92223 0.88640 0.97628 0.0
H40 H 0.91331 0.88673 0.06635 0.0
H41 H 0.93889 0.92239 0.09938 0.0
H42 H 0.97042 0.96072 0.09528 0.0
H43 H 0.97607 0.95204 0.96962 0.0
H44 H 0.94458 0.91375 0.97370 0.0
H45 H 0.00226 0.98724 0.08826 0.0
H46 H 0.98159 0.99143 0.07253 0.0
H47 H 0.98100 0.03077 0.01697 0.0
H48 H 0.97710 0.02009 0.06439 0.0
H49 H 0.97413 0.00454 0.02310 0.0
H50 H 0.02888 0.99202 0.07453 0.0
H51 H 0.04778 0.01352 0.10445 0.0
H52 H 0.05570 0.00951 0.05848 0.0
H53 H 0.05326 0.08255 0.99185 0.0
H54 H 0.06929 0.07214 0.98144 0.0
H55 H 0.07310 0.08559 0.02613 0.0
H56 H 0.08485 0.06462 0.04500 0.0
H57 H 0.07748 0.03860 0.05670 0.0
H58 H 0.10929 0.06056 0.05479 0.0
H59 H 0.14963 0.07653 0.04501 0.0
H60 H 0.13776 0.06384 0.91837 0.0
H61 H 0.09742 0.04788 0.92816 0.0
H62 H 0.17604 0.08163 0.94647 0.0
H63 H 0.17860 0.08839 0.03807 0.0
H64 H 0.02386 0.06874 0.97832 0.0
H65 H 0.99807 0.05219 0.99990 0.0
H66 H 0.00594 0.07858 0.95985 0.0
H67 H 0.98593 0.09629 0.93988 0.0
H68 H 0.99079 0.11831 0.06126 0.0
H69 H 0.01086 0.10067 0.08114 0.0
H70 H 0.96982 0.11768 0.95796 0.0
H71 H 0.97609 0.13054 0.04743 0.0
C72 C 0.86984 0.31261 0.05547 0.0
C73 C 0.87543 0.30679 0.02469 0.0
C74 C 0.88507 0.29543 0.02334 0.0
C75 C 0.89414 0.28607 0.02259 0.0
C76 C 0.90326 0.27541 0.02314 0.0
C77 C 0.91224 0.27320 0.05426 0.0
C78 C 0.92273 0.26293 0.05127 0.0
C79 C 0.92382 0.25669 0.01763 0.0
C80 C 0.91520 0.25916 0.98843 0.0
C81 C 0.90507 0.26887 0.99175 0.0
C82 C 0.87167 0.31221 0.98886 0.0
C83 C 0.86189 0.32356 0.98520 0.0
C84 C 0.85819 0.32918 0.95104 0.0
C85 C 0.85480 0.33432 0.92283 0.0
C86 C 0.84792 0.33938 0.89009 0.0
C87 C 0.85670 0.33682 0.85822 0.0
C88 C 0.85082 0.34191 0.82182 0.0
C89 C 0.83644 0.34932 0.82502 0.0
C90 C 0.82982 0.35182 0.85936 0.0
C91 C 0.83493 0.34578 0.89086 0.0
C92 C 0.85637 0.32835 0.01848 0.0
C93 C 0.86035 0.32270 0.05478 0.0
C94 C 0.85545 0.32856 0.08622 0.0
C95 C 0.85078 0.33351 0.11396 0.0
C96 C 0.84580 0.33958 0.14898 0.0
C97 C 0.83327 0.34597 0.14939 0.0
C98 C 0.82959 0.35303 0.18151 0.0
C99 C 0.83676 0.34984 0.21513 0.0
C100 C 0.84909 0.34223 0.21313 0.0
C101 C 0.85280 0.33612 0.18259 0.0
H102 H 0.87281 0.30941 0.07853 0.0
H103 H 0.91155 0.27830 0.07695 0.0
H104 H 0.92853 0.26073 0.07198 0.0
H105 H 0.91596 0.25433 0.96540 0.0
H106 H 0.89934 0.27079 0.97055 0.0
H107 H 0.87551 0.30840 0.96760 0.0
H108 H 0.86556 0.33225 0.85952 0.0
H109 H 0.85564 0.34061 0.79915 0.0
H110 H 0.82205 0.35752 0.86064 0.0
H111 H 0.82928 0.34608 0.91328 0.0
H112 H 0.84992 0.33542 0.01757 0.0
H113 H 0.82669 0.34575 0.12739 0.0
H114 H 0.82265 0.35961 0.18087 0.0
H115 H 0.85512 0.34143 0.23504 0.0
H116 H 0.85987 0.32965 0.18289 0.0
C117 C 0.48851 0.19565 0.97235 0.0
C118 C 0.47645 0.18969 0.00292 0.0
C119 C 0.45417 0.17806 0.00386 0.0
C120 C 0.43468 0.16845 0.00427 0.0
C121 C 0.41370 0.15754 0.00334 0.0
C122 C 0.40220 0.15516 0.97215 0.0
C123 C 0.38027 0.14461 0.97477 0.0
C124 C 0.37228 0.13830 0.00819 0.0
C125 C 0.38371 0.14094 0.03747 0.0
C126 C 0.40467 0.15092 0.03450 0.0
C127 C 0.48623 0.19522 0.03895 0.0
C128 C 0.50864 0.20685 0.04301 0.0
C129 C 0.51858 0.21258 0.07737 0.0
C130 C 0.52768 0.21783 0.10576 0.0
C131 C 0.54022 0.22305 0.13868 0.0
C132 C 0.52854 0.22033 0.17046 0.0
C133 C 0.54010 0.22556 0.20704 0.0
C134 C 0.56279 0.23328 0.20411 0.0
C135 C 0.57223 0.23592 0.16985 0.0
C136 C 0.56040 0.22974 0.13814 0.0
C137 C 0.51949 0.21177 0.00990 0.0
C138 C 0.50923 0.20600 0.97340 0.0
C139 C 0.52064 0.21199 0.94217 0.0
C140 C 0.53082 0.21706 0.91461 0.0
C141 C 0.54255 0.22327 0.87980 0.0
C142 C 0.56224 0.22993 0.87962 0.0
C143 C 0.57375 0.23712 0.84774 0.0
C144 C 0.56298 0.23377 0.81402 0.0
C145 C 0.54214 0.22589 0.81574 0.0
C146 C 0.53166 0.21966 0.84606 0.0
H147 H 0.48197 0.19237 0.94917 0.0
H148 H 0.40852 0.16031 0.94964 0.0
H149 H 0.37199 0.14229 0.95398 0.0
H150 H 0.37761 0.13605 0.06033 0.0
H151 H 0.41258 0.15295 0.05577 0.0
H152 H 0.47816 0.19132 0.06007 0.0
H153 H 0.51455 0.21557 0.16900 0.0
H154 H 0.53380 0.22417 0.22967 0.0
H155 H 0.58637 0.24181 0.16878 0.0
H156 H 0.56642 0.23013 0.11573 0.0
H157 H 0.53381 0.21902 0.01106 0.0
H158 H 0.56865 0.22983 0.90161 0.0
H159 H 0.58802 0.24388 0.84863 0.0
H160 H 0.53517 0.22498 0.79381 0.0
H161 H 0.51737 0.21301 0.84554 0.0
C162 C 0.70186 0.58304 0.04257 0.0
C163 C 0.70742 0.59473 0.01180 0.0
C164 C 0.71836 0.61637 0.01050 0.0
C165 C 0.72732 0.63527 0.00977 0.0
C166 C 0.73758 0.65564 0.01037 0.0
C167 C 0.73939 0.66659 0.04128 0.0
C168 C 0.74920 0.68783 0.03828 0.0
C169 C 0.75539 0.69572 0.00480 0.0
C170 C 0.75330 0.68482 0.97580 0.0
C171 C 0.74404 0.66452 0.97913 0.0
C172 C 0.70216 0.58519 0.97591 0.0
C173 C 0.69123 0.56343 0.97220 0.0
C174 C 0.68577 0.55372 0.93798 0.0
C175 C 0.68077 0.54484 0.90971 0.0
C176 C 0.67601 0.53274 0.87703 0.0
C177 C 0.67816 0.54386 0.84497 0.0
C178 C 0.67333 0.53267 0.80859 0.0
C179 C 0.66656 0.51089 0.81201 0.0
C180 C 0.66437 0.50188 0.84648 0.0
C181 C 0.67019 0.51337 0.87800 0.0
C182 C 0.68670 0.55294 0.00550 0.0
C183 C 0.69219 0.56295 0.04186 0.0
C184 C 0.68655 0.55188 0.07326 0.0
C185 C 0.68181 0.54201 0.10099 0.0
C186 C 0.67597 0.53063 0.13598 0.0
C187 C 0.67014 0.51173 0.13658 0.0
C188 C 0.66325 0.50049 0.16860 0.0
C189 C 0.66612 0.51081 0.20209 0.0
C190 C 0.67318 0.53087 0.19995 0.0
C191 C 0.67912 0.54109 0.16949 0.0
H192 H 0.70494 0.58939 0.06564 0.0
H193 H 0.73432 0.66034 0.06383 0.0
H194 H 0.75114 0.69576 0.05888 0.0
H195 H 0.75810 0.69084 0.95290 0.0
H196 H 0.74237 0.65696 0.95805 0.0
H197 H 0.70579 0.59300 0.95465 0.0
H198 H 0.68233 0.55728 0.84613 0.0
H199 H 0.67440 0.53865 0.78581 0.0
H200 H 0.65901 0.48824 0.84782 0.0
H201 H 0.67016 0.50771 0.90059 0.0
H202 H 0.67991 0.53905 0.00457 0.0
H203 H 0.67065 0.50571 0.11479 0.0
H204 H 0.65697 0.48666 0.16796 0.0
H205 H 0.67371 0.53747 0.22169 0.0
H206 H 0.68528 0.55491 0.16976 0.0
O207 O 0.73277 0.38732 0.58088 0.0
Zn208 Zn 0.70393 0.37671 0.56371 0.0
Zn209 Zn 0.70561 0.37408 0.46138 0.0
O210 O 0.72978 0.35988 0.56169 0.0
O211 O 0.72223 0.40263 0.44553 0.0
C212 C 0.68865 0.40147 0.57757 0.0
C213 C 0.66931 0.35556 0.42200 0.0
O214 O 0.69795 0.40658 0.46393 0.0
O215 O 0.67927 0.33498 0.56960 0.0
O216 O 0.68423 0.35893 0.60267 0.0
O217 O 0.70442 0.40081 0.58167 0.0
O218 O 0.67498 0.39150 0.55494 0.0
C219 C 0.71324 0.41186 0.44635 0.0
O220 O 0.66339 0.35819 0.45356 0.0
O221 O 0.68517 0.35728 0.42126 0.0
O222 O 0.72637 0.36828 0.44404 0.0
O223 O 0.71073 0.33876 0.46946 0.0
O224 O 0.69887 0.37031 0.51238 0.0
C225 C 0.72282 0.35098 0.44759 0.0
C226 C 0.67861 0.34214 0.60131 0.0
C227 C 0.73832 0.37513 0.57996 0.0
C228 C 0.79456 0.35676 0.76953 0.0
C229 C 0.80277 0.36201 0.72974 0.0
C230 C 0.82302 0.36370 0.72001 0.0
C231 C 0.83506 0.36014 0.75006 0.0
C232 C 0.82685 0.35489 0.78984 0.0
C233 C 0.80660 0.35320 0.79958 0.0
C234 C 0.79075 0.36557 0.69965 0.0
C235 C 0.77877 0.36915 0.66950 0.0
C236 C 0.76681 0.37272 0.63930 0.0
C237 C 0.75487 0.37630 0.60906 0.0
H238 H 0.77957 0.35550 0.77674 0.0
H239 H 0.82910 0.36760 0.69056 0.0
H240 H 0.85004 0.36139 0.74284 0.0
H241 H 0.80053 0.34931 0.82904 0.0
C242 C 0.57814 0.26723 0.28690 0.0
C243 C 0.60168 0.27730 0.28648 0.0
C244 C 0.61141 0.27019 0.25857 0.0
C245 C 0.59760 0.25302 0.23107 0.0
C246 C 0.57405 0.24295 0.23148 0.0
C247 C 0.56432 0.25006 0.25939 0.0
C248 C 0.61552 0.29448 0.31395 0.0
C249 C 0.62940 0.31167 0.34139 0.0
C250 C 0.64332 0.32886 0.36880 0.0
C251 C 0.65726 0.34605 0.39619 0.0
H252 H 0.57093 0.27250 0.30756 0.0
H253 H 0.62884 0.27764 0.25826 0.0
H254 H 0.60480 0.24776 0.21040 0.0
H255 H 0.54689 0.24260 0.25971 0.0
C256 C 0.58284 0.26519 0.73035 0.0
C257 C 0.60536 0.27101 0.73326 0.0
C258 C 0.61186 0.26172 0.76354 0.0
C259 C 0.59585 0.24660 0.79091 0.0
C260 C 0.57333 0.24077 0.78801 0.0
C261 C 0.56683 0.25006 0.75773 0.0
C262 C 0.62140 0.28613 0.70591 0.0
C263 C 0.63747 0.30124 0.67859 0.0
C264 C 0.65357 0.31635 0.65131 0.0
C265 C 0.66970 0.33146 0.62405 0.0
H266 H 0.57803 0.27207 0.70794 0.0
H267 H 0.62853 0.26603 0.76570 0.0
H268 H 0.60067 0.23971 0.81332 0.0
H269 H 0.55016 0.24575 0.75559 0.0
C270 C 0.67284 0.46309 0.26442 0.0
C271 C 0.68390 0.47337 0.30129 0.0
C272 C 0.68807 0.49413 0.31138 0.0
C273 C 0.68117 0.50463 0.28464 0.0
C274 C 0.67011 0.49436 0.24778 0.0
C275 C 0.66594 0.47359 0.23767 0.0
C276 C 0.69081 0.46289 0.32808 0.0
C277 C 0.69774 0.45246 0.35493 0.0
C278 C 0.70467 0.44205 0.38183 0.0
C279 C 0.71162 0.43167 0.40877 0.0
H280 H 0.66975 0.44772 0.25694 0.0
H281 H 0.69626 0.50174 0.33867 0.0
H282 H 0.68425 0.52000 0.29213 0.0
H283 H 0.65775 0.46599 0.21038 0.0
C284 C 0.65431 0.47286 0.71268 0.0
C285 C 0.67223 0.46981 0.71880 0.0
C286 C 0.68683 0.47953 0.75263 0.0
C287 C 0.68353 0.49229 0.78035 0.0
C288 C 0.66563 0.49534 0.77423 0.0
C289 C 0.65102 0.48563 0.74040 0.0
C290 C 0.67555 0.45705 0.69112 0.0
C291 C 0.67892 0.44430 0.66348 0.0
C292 C 0.68231 0.43155 0.63589 0.0
C293 C 0.68573 0.41880 0.60833 0.0
H294 H 0.64350 0.46567 0.68763 0.0
H295 H 0.70010 0.47728 0.75717 0.0
H296 H 0.69435 0.49948 0.80540 0.0
H297 H 0.63776 0.48789 0.73586 0.0
C298 C 0.81617 0.35195 0.31973 0.0
C299 C 0.79667 0.35127 0.30701 0.0
C300 C 0.79199 0.35123 0.26532 0.0
C301 C 0.80679 0.35186 0.23633 0.0
C302 C 0.82629 0.35253 0.24903 0.0
C303 C 0.83098 0.35257 0.29073 0.0
C304 C 0.78184 0.35064 0.33596 0.0
C305 C 0.76698 0.35001 0.36484 0.0
C306 C 0.75209 0.34937 0.39366 0.0
C307 C 0.73719 0.34874 0.42245 0.0
H308 H 0.81964 0.35198 0.35059 0.0
H309 H 0.77755 0.35074 0.25590 0.0
H310 H 0.80331 0.35182 0.20546 0.0
H311 H 0.84541 0.35308 0.30014 0.0
C312 C 0.92537 0.21013 0.98629 0.0
C313 C 0.94053 0.21034 0.01482 0.0
C314 C 0.95086 0.22701 0.04462 0.0
C315 C 0.94604 0.24347 0.04591 0.0
C316 C 0.96005 0.14463 0.01023 0.0
C317 C 0.92055 0.22659 0.98758 0.0
C318 C 0.94537 0.19389 0.01358 0.0
C319 C 0.95024 0.17745 0.01241 0.0
C320 C 0.95513 0.16104 0.01130 0.0
C321 C 0.93089 0.24327 0.01739 0.0
H322 H 0.91771 0.19778 0.96422 0.0
H323 H 0.96210 0.22717 0.06574 0.0
H324 H 0.95370 0.25581 0.06799 0.0
H325 H 0.90933 0.22644 0.96646 0.0
C326 C 0.30777 0.10233 0.00764 0.0
C327 C 0.30355 0.11922 0.00681 0.0
C328 C 0.32167 0.14128 0.00628 0.0
C329 C 0.34399 0.14646 0.00659 0.0
C330 C 0.21438 0.09886 0.00554 0.0
C331 C 0.33010 0.10752 0.00795 0.0
C332 C 0.28124 0.11407 0.00650 0.0
C333 C 0.25894 0.10897 0.00618 0.0
C334 C 0.23665 0.10390 0.00586 0.0
C335 C 0.34821 0.12958 0.00742 0.0
H336 H 0.29436 0.08600 0.00803 0.0
H337 H 0.31855 0.15379 0.00567 0.0
H338 H 0.35739 0.16280 0.00619 0.0
H339 H 0.33322 0.09502 0.00857 0.0
C340 C 0.79007 0.76023 0.00502 0.0
C341 C 0.81179 0.76383 0.00514 0.0
C342 C 0.81436 0.74588 0.00529 0.0
C343 C 0.79523 0.72433 0.00531 0.0
C344 C 0.88855 0.84989 0.00500 0.0
C345 C 0.77094 0.73867 0.00505 0.0
C346 C 0.83094 0.78537 0.00511 0.0
C347 C 0.85012 0.80689 0.00508 0.0
C348 C 0.86932 0.82839 0.00504 0.0
C349 C 0.77352 0.72073 0.00520 0.0
H350 H 0.78816 0.77351 0.00492 0.0
H351 H 0.83043 0.74854 0.00538 0.0
H352 H 0.79714 0.71105 0.00541 0.0
H353 H 0.75487 0.73601 0.00497 0.0
