data_{}
_symmetry_space_group_name_H-M    P1
_symmetry_Int_Tables_number       1
_symmetry_cell_setting            triclinic
loop_
_symmetry_equiv_pos_as_xyz
'x, y, z'
_cell_length_a     64.441
_cell_length_b     39.000
_cell_length_c     81.151
_cell_angle_alpha  91.126
_cell_angle_beta   89.125
_cell_angle_gamma  91.128
loop_
_atom_site_label
_atom_site_type_symbol
_atom_site_fract_x
_atom_site_fract_y
_atom_site_fract_z
_atom_type_partial_charge
C0 C 0.03254 0.01353 0.58500 0.0
Ag1 Ag 0.02626 0.00735 0.62803 0.0
C2 C 0.03386 0.92918 0.64262 0.0
C3 C 0.03685 0.08776 0.64157 0.0
N4 N 0.03442 0.00897 0.59874 0.0
N5 N 0.02950 0.95503 0.63737 0.0
N6 N 0.03664 0.05972 0.63705 0.0
C7 C 0.01464 0.03060 0.44860 0.0
Ag8 Ag 0.00340 0.03624 0.40641 0.0
C9 C 0.00926 0.11482 0.39117 0.0
C10 C 0.01235 0.95642 0.39193 0.0
N11 N 0.01491 0.03523 0.43475 0.0
N12 N 0.00553 0.08872 0.39681 0.0
N13 N 0.01267 0.98447 0.39643 0.0
C14 C 0.03233 0.51216 0.74150 0.0
H15 H 0.02036 0.59823 0.67372 0.0
H16 H 0.99632 0.33991 0.70683 0.0
H17 H 0.99480 0.35813 0.72439 0.0
H18 H 0.98346 0.37389 0.70918 0.0
H19 H 0.00124 0.41984 0.72354 0.0
H20 H 0.06102 0.43499 0.70815 0.0
H21 H 0.05916 0.38258 0.69427 0.0
H22 H 0.01284 0.47288 0.73451 0.0
H23 H 0.03170 0.46048 0.74498 0.0
O24 O 0.03804 0.46628 0.72196 0.0
O25 O 0.05663 0.49228 0.76107 0.0
C26 C 0.03161 0.37091 0.69987 0.0
C27 C 0.03105 0.43194 0.71733 0.0
C28 C 0.01423 0.38238 0.70877 0.0
C29 C 0.99564 0.36184 0.71262 0.0
H30 H 0.13107 0.53206 0.75867 0.0
C31 C 0.01322 0.41292 0.71772 0.0
C32 C 0.04880 0.42144 0.70846 0.0
C33 C 0.04735 0.39002 0.70013 0.0
C34 C 0.02780 0.47580 0.73617 0.0
O35 O 0.03728 0.56955 0.73191 0.0
O36 O 0.99737 0.52054 0.75105 0.0
H37 H 0.06009 0.53332 0.74849 0.0
H38 H 0.06258 0.49893 0.73805 0.0
H39 H 0.09354 0.53849 0.75949 0.0
H40 H 0.06803 0.44824 0.77493 0.0
H41 H 0.09837 0.43823 0.78883 0.0
H42 H 0.14055 0.52619 0.77625 0.0
C43 C 0.11278 0.47869 0.78322 0.0
C44 C 0.07824 0.49459 0.76572 0.0
C45 C 0.11117 0.50883 0.77429 0.0
C46 C 0.12824 0.53271 0.77044 0.0
H47 H 0.03271 0.63248 0.66945 0.0
C48 C 0.09409 0.51794 0.76533 0.0
C49 C 0.07919 0.46411 0.77460 0.0
C50 C 0.09747 0.45864 0.78296 0.0
C51 C 0.05442 0.51004 0.74685 0.0
H52 H 0.03634 0.56614 0.69548 0.0
H53 H 0.03397 0.62506 0.73735 0.0
H54 H 0.03572 0.52915 0.71799 0.0
H55 H 0.01431 0.53957 0.72627 0.0
H56 H 0.03408 0.67328 0.72114 0.0
H57 H 0.12441 0.55574 0.77387 0.0
H58 H 0.04478 0.59776 0.67113 0.0
C59 C 0.03538 0.65089 0.70050 0.0
C60 C 0.03493 0.59088 0.71767 0.0
C61 C 0.03601 0.61841 0.69288 0.0
C62 C 0.03322 0.61110 0.67532 0.0
C63 C 0.03585 0.58752 0.70101 0.0
C64 C 0.03440 0.62301 0.72579 0.0
C65 C 0.03460 0.65166 0.71586 0.0
C66 C 0.02920 0.53765 0.72822 0.0
H67 H 0.99820 0.52419 0.78748 0.0
H68 H 0.96631 0.54037 0.74557 0.0
H69 H 0.93771 0.55457 0.76175 0.0
H70 H 0.02067 0.51331 0.76500 0.0
H71 H 0.02073 0.54968 0.75669 0.0
H72 H 0.95974 0.55008 0.81347 0.0
H73 H 0.98308 0.56024 0.80920 0.0
H74 H 0.97666 0.52126 0.81182 0.0
C75 C 0.94954 0.54817 0.78241 0.0
C76 C 0.98510 0.53125 0.76528 0.0
C77 C 0.96790 0.53904 0.79004 0.0
C78 C 0.97221 0.54300 0.80761 0.0
C79 C 0.98616 0.53027 0.78193 0.0
C80 C 0.96693 0.54010 0.75713 0.0
C81 C 0.94989 0.54833 0.76704 0.0
C82 C 0.01789 0.52516 0.75476 0.0
C83 C 0.01615 0.53200 0.29204 0.0
H84 H 0.05368 0.68604 0.30914 0.0
H85 H 0.08874 0.49408 0.22006 0.0
H86 H 0.06540 0.48393 0.22433 0.0
H87 H 0.07181 0.52290 0.22171 0.0
H88 H 0.05027 0.51997 0.24605 0.0
H89 H 0.08218 0.50380 0.28796 0.0
H90 H 0.11077 0.48960 0.27178 0.0
H91 H 0.02781 0.53086 0.26854 0.0
H92 H 0.02775 0.49449 0.27684 0.0
O93 O 0.05111 0.52362 0.28248 0.0
O94 O 0.01120 0.47461 0.30162 0.0
C95 C 0.09894 0.49599 0.25112 0.0
C96 C 0.06338 0.51292 0.26825 0.0
C97 C 0.08058 0.50513 0.24349 0.0
C98 C 0.07626 0.50116 0.22592 0.0
H99 H 0.02812 0.44593 0.35981 0.0
C100 C 0.06232 0.51389 0.25160 0.0
C101 C 0.08155 0.50406 0.27640 0.0
C102 C 0.09859 0.49583 0.26649 0.0
C103 C 0.03059 0.51900 0.27877 0.0
O104 O 0.01044 0.57788 0.31158 0.0
O105 O 0.99185 0.55188 0.27246 0.0
H106 H 0.01277 0.51501 0.31554 0.0
H107 H 0.03418 0.50459 0.30726 0.0
H108 H 0.01215 0.47803 0.33806 0.0
H109 H 0.01452 0.41911 0.29618 0.0
H110 H 0.01440 0.37089 0.31239 0.0
H111 H 0.01577 0.41169 0.36409 0.0
C112 C 0.01310 0.39327 0.33304 0.0
C113 C 0.01355 0.45328 0.31587 0.0
C114 C 0.01247 0.42575 0.34065 0.0
C115 C 0.01526 0.43306 0.35822 0.0
H116 H 0.05216 0.70425 0.32671 0.0
C117 C 0.01263 0.45664 0.33252 0.0
C118 C 0.01409 0.42115 0.30774 0.0
C119 C 0.01388 0.39250 0.31767 0.0
C120 C 0.01928 0.50651 0.30532 0.0
H121 H 0.04725 0.62433 0.31000 0.0
H122 H 0.98747 0.60917 0.32539 0.0
H123 H 0.03564 0.57128 0.29902 0.0
H124 H 0.01678 0.58368 0.28855 0.0
H125 H 0.98933 0.66158 0.33926 0.0
H126 H 0.00370 0.44640 0.36241 0.0
H127 H 0.06503 0.67027 0.32435 0.0
C128 C 0.01687 0.67325 0.33367 0.0
C129 C 0.01743 0.61222 0.31621 0.0
C130 C 0.03425 0.66178 0.32476 0.0
C131 C 0.05284 0.68232 0.32091 0.0
C132 C 0.03526 0.63124 0.31582 0.0
C133 C 0.99990 0.62272 0.32507 0.0
C134 C 0.00113 0.65414 0.33340 0.0
C135 C 0.02068 0.56836 0.29737 0.0
H136 H 0.95494 0.50567 0.27404 0.0
H137 H 0.98045 0.59592 0.25861 0.0
H138 H 0.95011 0.60593 0.24470 0.0
H139 H 0.98839 0.51084 0.28504 0.0
H140 H 0.98590 0.54524 0.29549 0.0
H141 H 0.90793 0.51798 0.25728 0.0
H142 H 0.91741 0.51210 0.27486 0.0
H143 H 0.92407 0.48842 0.25967 0.0
C144 C 0.93569 0.56548 0.25032 0.0
C145 C 0.97024 0.54958 0.26782 0.0
C146 C 0.93731 0.53534 0.25924 0.0
C147 C 0.92024 0.51145 0.26310 0.0
C148 C 0.95439 0.52622 0.26821 0.0
C149 C 0.96929 0.58006 0.25893 0.0
C150 C 0.95101 0.58552 0.25058 0.0
C151 C 0.99406 0.53412 0.28669 0.0
C152 C 0.68583 0.66946 0.99990 0.0
C153 C 0.67330 0.66739 0.01357 0.0
C154 C 0.65107 0.66145 0.01411 0.0
C155 C 0.63152 0.65739 0.01439 0.0
C156 C 0.61060 0.65184 0.01409 0.0
C157 C 0.59891 0.65555 0.00010 0.0
C158 C 0.57684 0.65153 0.00158 0.0
C159 C 0.56879 0.64563 0.01646 0.0
C160 C 0.58037 0.64247 0.02941 0.0
C161 C 0.60149 0.64609 0.02797 0.0
C162 C 0.68248 0.67143 0.02951 0.0
C163 C 0.70479 0.67734 0.03120 0.0
C164 C 0.71413 0.68162 0.04640 0.0
C165 C 0.72271 0.68550 0.05897 0.0
C166 C 0.73499 0.68673 0.07352 0.0
C167 C 0.72229 0.69087 0.08769 0.0
C168 C 0.73345 0.69294 0.10388 0.0
C169 C 0.75686 0.69068 0.10245 0.0
C170 C 0.76718 0.68806 0.08719 0.0
C171 C 0.75583 0.68438 0.07317 0.0
C172 C 0.71622 0.67822 0.01644 0.0
C173 C 0.70657 0.67407 0.00010 0.0
C174 C 0.71838 0.67671 0.98635 0.0
C175 C 0.72896 0.67851 0.97406 0.0
C176 C 0.74114 0.68127 0.95854 0.0
C177 C 0.76144 0.67927 0.95835 0.0
C178 C 0.77315 0.68421 0.94414 0.0
C179 C 0.76248 0.68536 0.92922 0.0
C180 C 0.74112 0.68583 0.93009 0.0
C181 C 0.73038 0.68199 0.94361 0.0
H182 H 0.67961 0.66761 0.98967 0.0
H183 H 0.60520 0.66059 0.99027 0.0
H184 H 0.56851 0.65301 0.99239 0.0
H185 H 0.57428 0.63778 0.03959 0.0
H186 H 0.60946 0.64435 0.03738 0.0
H187 H 0.67407 0.67023 0.03894 0.0
H188 H 0.70790 0.69220 0.08712 0.0
H189 H 0.72651 0.69542 0.11396 0.0
H190 H 0.78157 0.68884 0.08664 0.0
H191 H 0.76265 0.68013 0.06319 0.0
H192 H 0.73052 0.68161 0.01688 0.0
H193 H 0.76815 0.67441 0.96809 0.0
H194 H 0.78751 0.68666 0.94445 0.0
H195 H 0.73399 0.68909 0.92039 0.0
H196 H 0.71599 0.67977 0.94346 0.0
C197 C 0.36284 0.37174 0.03361 0.0
C198 C 0.37534 0.37416 0.01997 0.0
C199 C 0.39770 0.37826 0.01943 0.0
C200 C 0.41721 0.38301 0.01914 0.0
C201 C 0.43824 0.38696 0.01944 0.0
C202 C 0.44895 0.39692 0.03324 0.0
C203 C 0.47090 0.40274 0.03196 0.0
C204 C 0.47961 0.39936 0.01707 0.0
C205 C 0.46891 0.39006 0.00412 0.0
C206 C 0.44794 0.38429 0.00556 0.0
C207 C 0.36598 0.37265 0.00402 0.0
C208 C 0.34357 0.36830 0.00234 0.0
C209 C 0.33401 0.36701 0.98713 0.0
C210 C 0.32523 0.36589 0.97457 0.0
C211 C 0.31325 0.36040 0.96002 0.0
C212 C 0.32506 0.36887 0.94585 0.0
C213 C 0.31406 0.36454 0.92966 0.0
C214 C 0.29169 0.35206 0.93108 0.0
C215 C 0.28198 0.34621 0.94634 0.0
C216 C 0.29340 0.34888 0.96036 0.0
C217 C 0.33228 0.36531 0.01710 0.0
C218 C 0.34211 0.36694 0.03325 0.0
C219 C 0.33023 0.36541 0.04718 0.0
C220 C 0.31965 0.36347 0.05948 0.0
C221 C 0.30738 0.36203 0.07500 0.0
C222 C 0.28800 0.35108 0.07518 0.0
C223 C 0.27588 0.35183 0.08940 0.0
C224 C 0.28596 0.35895 0.10432 0.0
C225 C 0.30659 0.36884 0.10345 0.0
C226 C 0.31761 0.36877 0.08993 0.0
H227 H 0.36906 0.37357 0.04387 0.0
H228 H 0.44210 0.39985 0.04328 0.0
H229 H 0.47871 0.40866 0.04115 0.0
H230 H 0.47553 0.38738 0.99394 0.0
H231 H 0.44053 0.37826 0.99615 0.0
H232 H 0.37435 0.37444 0.99460 0.0
H233 H 0.33880 0.37661 0.94643 0.0
H234 H 0.32050 0.36919 0.91959 0.0
H235 H 0.26794 0.34060 0.94689 0.0
H236 H 0.28734 0.34256 0.97034 0.0
H237 H 0.31796 0.36219 0.01666 0.0
H238 H 0.28224 0.34256 0.06544 0.0
H239 H 0.26164 0.34779 0.08908 0.0
H240 H 0.31298 0.37599 0.11315 0.0
H241 H 0.33186 0.37304 0.09008 0.0
C242 C 0.90210 0.61086 0.80801 0.0
C243 C 0.89529 0.58793 0.82243 0.0
C244 C 0.90464 0.55216 0.82412 0.0
C245 C 0.92079 0.53930 0.81137 0.0
C246 C 0.92759 0.56221 0.79695 0.0
C247 C 0.91825 0.59800 0.79527 0.0
C248 C 0.87909 0.60075 0.83514 0.0
C249 C 0.86287 0.61353 0.84785 0.0
C250 C 0.84663 0.62626 0.86055 0.0
C251 C 0.83036 0.63895 0.87323 0.0
C252 C 0.81407 0.65162 0.88591 0.0
C253 C 0.80699 0.62837 0.90013 0.0
C254 C 0.79063 0.64097 0.91276 0.0
C255 C 0.78136 0.67682 0.91118 0.0
C256 C 0.78846 0.70009 0.89697 0.0
C257 C 0.80481 0.68749 0.88433 0.0
H258 H 0.89519 0.63735 0.80677 0.0
H259 H 0.89960 0.53519 0.83479 0.0
H260 H 0.92771 0.51281 0.81262 0.0
H261 H 0.92330 0.61497 0.78459 0.0
H262 H 0.81384 0.60181 0.90129 0.0
H263 H 0.78538 0.62374 0.92328 0.0
H264 H 0.78161 0.72665 0.89581 0.0
H265 H 0.81006 0.70471 0.87381 0.0
C266 C 0.89405 0.62841 0.22154 0.0
C267 C 0.88311 0.60183 0.21021 0.0
C268 C 0.88778 0.56344 0.21168 0.0
C269 C 0.90341 0.55165 0.22446 0.0
C270 C 0.91436 0.57823 0.23579 0.0
C271 C 0.90968 0.61662 0.23433 0.0
C272 C 0.86754 0.61363 0.19739 0.0
C273 C 0.85197 0.62542 0.18454 0.0
C274 C 0.83644 0.63719 0.17168 0.0
C275 C 0.82094 0.64895 0.15879 0.0
C276 C 0.80545 0.66071 0.14589 0.0
C277 C 0.79484 0.63413 0.13436 0.0
C278 C 0.77942 0.64589 0.12141 0.0
C279 C 0.77460 0.68423 0.12000 0.0
C280 C 0.78520 0.71080 0.13154 0.0
C281 C 0.80062 0.69904 0.14449 0.0
H282 H 0.89059 0.65683 0.22046 0.0
H283 H 0.87967 0.54376 0.20329 0.0
H284 H 0.90686 0.52323 0.22555 0.0
H285 H 0.91778 0.63629 0.24272 0.0
H286 H 0.79841 0.60574 0.13540 0.0
H287 H 0.77157 0.62622 0.11287 0.0
H288 H 0.78162 0.73918 0.13050 0.0
H289 H 0.80847 0.71872 0.15303 0.0
C290 C 0.14925 0.41649 0.81609 0.0
C291 C 0.16487 0.44242 0.82371 0.0
C292 C 0.16504 0.48011 0.81840 0.0
C293 C 0.14962 0.49188 0.80546 0.0
C294 C 0.13401 0.46596 0.79783 0.0
C295 C 0.13382 0.42826 0.80315 0.0
C296 C 0.18034 0.43063 0.83662 0.0
C297 C 0.19584 0.41885 0.84951 0.0
C298 C 0.21136 0.40708 0.86238 0.0
C299 C 0.22692 0.39531 0.87523 0.0
C300 C 0.24249 0.38355 0.88807 0.0
C301 C 0.25835 0.40939 0.89543 0.0
C302 C 0.27399 0.39760 0.90821 0.0
C303 C 0.27375 0.35998 0.91364 0.0
C304 C 0.25787 0.33415 0.90629 0.0
C305 C 0.24224 0.34594 0.89350 0.0
H306 H 0.14911 0.38859 0.82003 0.0
H307 H 0.17659 0.49930 0.82405 0.0
H308 H 0.14975 0.51978 0.80152 0.0
H309 H 0.12226 0.40907 0.79751 0.0
H310 H 0.25853 0.43724 0.89140 0.0
H311 H 0.28574 0.41671 0.91365 0.0
H312 H 0.25769 0.30631 0.91031 0.0
H313 H 0.23049 0.32681 0.88806 0.0
C314 C 0.14275 0.43102 0.22309 0.0
C315 C 0.15365 0.45655 0.21142 0.0
C316 C 0.14823 0.49482 0.21238 0.0
C317 C 0.13189 0.50756 0.22499 0.0
C318 C 0.12097 0.48203 0.23665 0.0
C319 C 0.12641 0.44375 0.23571 0.0
C320 C 0.16995 0.44379 0.19878 0.0
C321 C 0.18623 0.43106 0.18611 0.0
C322 C 0.20248 0.41833 0.17342 0.0
C323 C 0.21871 0.40561 0.16070 0.0
C324 C 0.23492 0.39289 0.14797 0.0
C325 C 0.24550 0.41838 0.13610 0.0
C326 C 0.26164 0.40564 0.12333 0.0
C327 C 0.26721 0.36743 0.12242 0.0
C328 C 0.25664 0.34195 0.13430 0.0
C329 C 0.24050 0.35469 0.14708 0.0
H330 H 0.14677 0.40269 0.22240 0.0
H331 H 0.15631 0.51373 0.20375 0.0
H332 H 0.12788 0.53589 0.22570 0.0
H333 H 0.11834 0.42485 0.24435 0.0
H334 H 0.24137 0.44667 0.13677 0.0
H335 H 0.26946 0.42450 0.11453 0.0
H336 H 0.26078 0.31367 0.13364 0.0
H337 H 0.23267 0.33582 0.15587 0.0
O338 O 0.50871 0.47724 0.02240 0.0
C339 C 0.50575 0.45319 0.01213 0.0
O340 O 0.51310 0.45132 0.99757 0.0
Ni341 Ni 0.52174 0.52458 0.01792 0.0
O342 O 0.54197 0.59328 0.03830 0.0
O343 O 0.53456 0.57132 0.01325 0.0
C344 C 0.54337 0.59301 0.02265 0.0
C345 C 0.01560 0.17767 0.65348 0.0
C346 C 0.03466 0.19334 0.66227 0.0
C347 C 0.05455 0.17240 0.66363 0.0
C348 C 0.05539 0.13581 0.65620 0.0
C349 C 0.03633 0.12014 0.64741 0.0
C350 C 0.01643 0.14108 0.64605 0.0
C351 C 0.03386 0.22993 0.66970 0.0
C352 C 0.03311 0.26651 0.67715 0.0
C353 C 0.03239 0.30310 0.68460 0.0
C354 C 0.03171 0.33968 0.69207 0.0
H355 H 0.00010 0.19317 0.65247 0.0
H356 H 0.06867 0.18398 0.67014 0.0
H357 H 0.07012 0.12032 0.65720 0.0
H358 H 0.00232 0.12948 0.63955 0.0
C359 C 0.01596 0.84640 0.66272 0.0
C360 C 0.03621 0.82620 0.66344 0.0
C361 C 0.05667 0.84214 0.65685 0.0
C362 C 0.05689 0.87828 0.64953 0.0
C363 C 0.03665 0.89849 0.64881 0.0
C364 C 0.01619 0.88255 0.65540 0.0
C365 C 0.03601 0.79006 0.67076 0.0
C366 C 0.03587 0.75391 0.67806 0.0
C367 C 0.03577 0.71776 0.68537 0.0
C368 C 0.03570 0.68160 0.69267 0.0
H369 H 0.00010 0.83461 0.66760 0.0
H370 H 0.07166 0.82719 0.65738 0.0
H371 H 0.07205 0.89007 0.64465 0.0
H372 H 0.00120 0.89750 0.65486 0.0
C373 C 0.03326 0.87449 0.37062 0.0
C374 C 0.01383 0.85089 0.37119 0.0
C375 C 0.99359 0.86387 0.37923 0.0
C376 C 0.99275 0.90044 0.38668 0.0
C377 C 0.01217 0.92404 0.38610 0.0
C378 C 0.03243 0.91107 0.37807 0.0
C379 C 0.01464 0.81431 0.36375 0.0
C380 C 0.01539 0.77771 0.35631 0.0
C381 C 0.01610 0.74111 0.34887 0.0
C382 C 0.01678 0.70450 0.34145 0.0
H383 H 0.04826 0.86489 0.36467 0.0
H384 H 0.97920 0.84640 0.37966 0.0
H385 H 0.97775 0.91003 0.39262 0.0
H386 H 0.04681 0.92854 0.37765 0.0
C387 C 0.03283 0.19934 0.37253 0.0
C388 C 0.01229 0.21797 0.37009 0.0
C389 C 0.99153 0.20045 0.37497 0.0
C390 C 0.99131 0.16431 0.38228 0.0
C391 C 0.01185 0.14568 0.38472 0.0
C392 C 0.03261 0.16319 0.37985 0.0
C393 C 0.01248 0.25411 0.36278 0.0
C394 C 0.01262 0.29026 0.35547 0.0
C395 C 0.01272 0.32641 0.34817 0.0
C396 C 0.01278 0.36257 0.34086 0.0
H397 H 0.04820 0.21230 0.36892 0.0
H398 H 0.97632 0.21423 0.37316 0.0
H399 H 0.97594 0.15136 0.38589 0.0
H400 H 0.04782 0.14940 0.38165 0.0
H401 H 0.99831 0.05236 0.46639 0.0
H402 H 0.03381 0.04707 0.47675 0.0
H403 H 0.00429 0.04896 0.49683 0.0
H404 H 0.05273 0.03674 0.56844 0.0
H405 H 0.01723 0.04202 0.55807 0.0
H406 H 0.04676 0.04013 0.53799 0.0
H407 H 0.05019 0.99181 0.56714 0.0
H408 H 0.01469 0.99709 0.55678 0.0
H409 H 0.04422 0.99520 0.53670 0.0
H410 H 0.99578 0.00743 0.46509 0.0
H411 H 0.03128 0.00215 0.47545 0.0
H412 H 0.00175 0.00404 0.49554 0.0
C413 C 0.00672 0.02883 0.46423 0.0
C414 C 0.02265 0.02571 0.47755 0.0
C415 C 0.01277 0.02542 0.49472 0.0
C416 C 0.02919 0.02223 0.50810 0.0
C417 C 0.04179 0.01533 0.56930 0.0
C418 C 0.02586 0.01846 0.55598 0.0
C419 C 0.03574 0.01874 0.53880 0.0
C420 C 0.01932 0.02194 0.52542 0.0
