data_{}
_symmetry_space_group_name_H-M    P1
_symmetry_Int_Tables_number       1
_symmetry_cell_setting            triclinic
loop_
_symmetry_equiv_pos_as_xyz
'x, y, z'
_cell_length_a     57.601
_cell_length_b     57.519
_cell_length_c     35.535
_cell_angle_alpha  90.001
_cell_angle_beta   89.999
_cell_angle_gamma  74.797
loop_
_atom_site_label
_atom_site_type_symbol
_atom_site_fract_x
_atom_site_fract_y
_atom_site_fract_z
_atom_type_partial_charge
C0 C 0.97203 0.49652 0.96847 0.0
C1 C 0.97191 0.49668 0.03939 0.0
C2 C 0.99271 0.50494 0.96797 0.0
C3 C 0.99274 0.50485 0.03989 0.0
C4 C 0.00122 0.50998 0.93076 0.0
C5 C 0.00111 0.51011 0.07702 0.0
C6 C 0.95984 0.49429 0.00391 0.0
C7 C 0.00239 0.50980 0.00396 0.0
H8 H 0.08406 0.53462 0.00391 0.0
H9 H 0.03463 0.51842 0.90557 0.0
H10 H 0.03494 0.51791 0.10216 0.0
H11 H 0.06310 0.57997 0.86804 0.0
H12 H 0.05311 0.57268 0.93436 0.0
H13 H 0.07551 0.49840 0.91145 0.0
H14 H 0.09562 0.50726 0.85351 0.0
H15 H 0.06349 0.58090 0.13873 0.0
H16 H 0.05204 0.57293 0.07346 0.0
H17 H 0.07760 0.49875 0.09596 0.0
H18 H 0.09905 0.50848 0.15194 0.0
H19 H 0.94208 0.49092 0.00391 0.0
H20 H 0.99151 0.50711 0.90557 0.0
H21 H 0.99120 0.50763 0.10216 0.0
H22 H 0.96305 0.44557 0.86804 0.0
H23 H 0.97303 0.45286 0.93436 0.0
H24 H 0.95063 0.52714 0.91145 0.0
H25 H 0.93052 0.51828 0.85351 0.0
H26 H 0.96266 0.44464 0.13873 0.0
H27 H 0.97411 0.45261 0.07346 0.0
H28 H 0.94854 0.52679 0.09597 0.0
H29 H 0.92709 0.51706 0.15194 0.0
C30 C 0.08346 0.54449 0.85998 0.0
C31 C 0.08412 0.54557 0.14721 0.0
C32 C 0.06915 0.56191 0.87993 0.0
C33 C 0.06943 0.56275 0.12725 0.0
C34 C 0.06164 0.55746 0.91646 0.0
C35 C 0.06130 0.55787 0.09123 0.0
C36 C 0.06477 0.53453 0.93008 0.0
C37 C 0.06473 0.53483 0.07788 0.0
C38 C 0.07518 0.51700 0.90503 0.0
C39 C 0.07655 0.51753 0.10225 0.0
C40 C 0.08559 0.52210 0.87100 0.0
C41 C 0.08754 0.52306 0.13559 0.0
C42 C 0.05411 0.52902 0.96847 0.0
C43 C 0.05423 0.52886 0.03939 0.0
C44 C 0.03343 0.52060 0.96797 0.0
C45 C 0.03341 0.52069 0.03989 0.0
C46 C 0.02493 0.51556 0.93076 0.0
C47 C 0.02503 0.51543 0.07702 0.0
C48 C 0.06630 0.53125 0.00391 0.0
C49 C 0.02376 0.51573 0.00396 0.0
C50 C 0.94269 0.48105 0.85998 0.0
C51 C 0.94202 0.47997 0.14721 0.0
C52 C 0.95699 0.46363 0.87993 0.0
C53 C 0.95672 0.46279 0.12725 0.0
C54 C 0.96451 0.46808 0.91646 0.0
C55 C 0.96484 0.46767 0.09123 0.0
C56 C 0.96137 0.49101 0.93008 0.0
C57 C 0.96141 0.49071 0.07788 0.0
C58 C 0.95096 0.50854 0.90503 0.0
C59 C 0.94959 0.50801 0.10225 0.0
C60 C 0.94055 0.50344 0.87100 0.0
C61 C 0.93861 0.50248 0.13559 0.0
C62 C 0.49560 0.97241 0.96837 0.0
C63 C 0.49543 0.97249 0.03929 0.0
C64 C 0.50425 0.99297 0.96787 0.0
C65 C 0.50432 0.99290 0.03979 0.0
C66 C 0.50686 0.00296 0.93065 0.0
C67 C 0.50672 0.00303 0.07691 0.0
C68 C 0.48888 0.96295 0.00381 0.0
C69 C 0.50774 0.00349 0.00385 0.0
H70 H 0.54692 0.07649 0.00381 0.0
H71 H 0.52391 0.03117 0.90547 0.0
H72 H 0.52442 0.03085 0.10205 0.0
H73 H 0.50603 0.10812 0.86794 0.0
H74 H 0.50378 0.09506 0.93426 0.0
H75 H 0.56286 0.03611 0.91134 0.0
H76 H 0.57087 0.05675 0.85341 0.0
H77 H 0.50573 0.10926 0.13863 0.0
H78 H 0.50291 0.09466 0.07336 0.0
H79 H 0.56403 0.03770 0.09586 0.0
H80 H 0.57241 0.06000 0.15184 0.0
H81 H 0.47915 0.94905 0.00381 0.0
H82 H 0.50216 0.99437 0.90547 0.0
H83 H 0.50165 0.99468 0.10205 0.0
H84 H 0.52004 0.91741 0.86793 0.0
H85 H 0.52229 0.93048 0.93425 0.0
H86 H 0.46321 0.98943 0.91135 0.0
H87 H 0.45520 0.96879 0.85341 0.0
H88 H 0.52034 0.91627 0.13863 0.0
H89 H 0.52315 0.93088 0.07336 0.0
H90 H 0.46204 0.98784 0.09586 0.0
H91 H 0.45366 0.96554 0.15184 0.0
C92 C 0.54064 0.08574 0.85987 0.0
C93 C 0.54043 0.08719 0.14710 0.0
C94 C 0.52079 0.09416 0.87983 0.0
C95 C 0.52048 0.09514 0.12715 0.0
C96 C 0.51849 0.08532 0.91635 0.0
C97 C 0.51801 0.08553 0.09112 0.0
C98 C 0.53422 0.06487 0.92997 0.0
C99 C 0.53402 0.06514 0.07778 0.0
C100 C 0.55155 0.05403 0.90492 0.0
C101 C 0.55214 0.05535 0.10215 0.0
C102 C 0.55539 0.06521 0.87090 0.0
C103 C 0.55611 0.06731 0.13549 0.0
C104 C 0.53047 0.05313 0.96837 0.0
C105 C 0.53064 0.05305 0.03929 0.0
C106 C 0.52182 0.03257 0.96787 0.0
C107 C 0.52175 0.03264 0.03979 0.0
C108 C 0.51920 0.02257 0.93065 0.0
C109 C 0.51935 0.02251 0.07691 0.0
C110 C 0.53719 0.06259 0.00381 0.0
C111 C 0.51833 0.02204 0.00385 0.0
C112 C 0.48543 0.93980 0.85987 0.0
C113 C 0.48564 0.93835 0.14710 0.0
C114 C 0.50528 0.93138 0.87982 0.0
C115 C 0.50559 0.93040 0.12715 0.0
C116 C 0.50758 0.94021 0.91635 0.0
C117 C 0.50805 0.94001 0.09112 0.0
C118 C 0.49185 0.96067 0.92997 0.0
C119 C 0.49205 0.96040 0.07778 0.0
C120 C 0.47451 0.97151 0.90492 0.0
C121 C 0.47392 0.97018 0.10215 0.0
C122 C 0.47067 0.96033 0.87090 0.0
C123 C 0.46996 0.95823 0.13549 0.0
H124 H 0.48091 0.50338 0.55255 0.0
O125 O 0.48392 0.51617 0.54738 0.0
H126 H 0.54524 0.52214 0.45616 0.0
O127 O 0.54222 0.50935 0.46133 0.0
H128 H 0.50139 0.54065 0.47445 0.0
H129 H 0.53223 0.54370 0.51712 0.0
H130 H 0.52245 0.52834 0.54673 0.0
H131 H 0.52475 0.48487 0.53426 0.0
H132 H 0.49392 0.48182 0.49160 0.0
C133 C 0.49922 0.53855 0.50148 0.0
H134 H 0.50370 0.49718 0.46198 0.0
C135 C 0.48635 0.51798 0.50673 0.0
C136 C 0.52423 0.53091 0.52001 0.0
C137 C 0.52693 0.48697 0.50723 0.0
C138 C 0.50192 0.49461 0.48870 0.0
C139 C 0.53980 0.50754 0.50198 0.0
C140 C 0.20451 0.60173 0.48254 0.0
C141 C 0.20451 0.60173 0.52588 0.0
C142 C 0.22766 0.60173 0.54755 0.0
C143 C 0.25082 0.60172 0.52589 0.0
C144 C 0.25082 0.60172 0.48256 0.0
C145 C 0.22767 0.60173 0.46088 0.0
C146 C 0.18465 0.60173 0.45354 0.0
N147 N 0.19552 0.60173 0.41395 0.0
C148 C 0.22211 0.60173 0.41849 0.0
C149 C 0.27625 0.60172 0.46917 0.0
N150 N 0.29196 0.60172 0.50423 0.0
C151 C 0.27624 0.60172 0.53929 0.0
C152 C 0.22210 0.60173 0.58995 0.0
N153 N 0.19551 0.60173 0.59447 0.0
C154 C 0.18464 0.60173 0.55488 0.0
H155 H 0.16496 0.60173 0.45689 0.0
H156 H 0.23375 0.60172 0.39254 0.0
H157 H 0.28430 0.60172 0.43986 0.0
H158 H 0.28429 0.60172 0.56860 0.0
H159 H 0.23373 0.60172 0.61590 0.0
H160 H 0.16495 0.60173 0.55152 0.0
C161 C 0.60182 0.25088 0.48245 0.0
C162 C 0.60182 0.22770 0.46078 0.0
C163 C 0.60181 0.20451 0.48244 0.0
C164 C 0.60181 0.20450 0.52578 0.0
C165 C 0.60182 0.22769 0.54745 0.0
C166 C 0.60182 0.25088 0.52579 0.0
C167 C 0.60182 0.27635 0.46907 0.0
N168 N 0.60182 0.29208 0.50414 0.0
C169 C 0.60182 0.27634 0.53920 0.0
C170 C 0.60182 0.22212 0.58984 0.0
N171 N 0.60181 0.19549 0.59436 0.0
C172 C 0.60181 0.18460 0.55477 0.0
C173 C 0.60181 0.18462 0.45343 0.0
N174 N 0.60181 0.19551 0.41385 0.0
C175 C 0.60182 0.22214 0.41838 0.0
H176 H 0.60182 0.28441 0.43977 0.0
H177 H 0.60182 0.28439 0.56850 0.0
H178 H 0.60182 0.23376 0.61580 0.0
H179 H 0.60181 0.16490 0.55141 0.0
H180 H 0.60181 0.16490 0.45678 0.0
H181 H 0.60182 0.23379 0.39243 0.0
C182 C 0.77533 0.42380 0.48255 0.0
C183 C 0.79848 0.42380 0.46088 0.0
C184 C 0.82164 0.42380 0.48254 0.0
C185 C 0.82164 0.42380 0.52588 0.0
C186 C 0.79849 0.42380 0.54755 0.0
C187 C 0.77533 0.42380 0.52589 0.0
C188 C 0.74990 0.42380 0.46917 0.0
N189 N 0.73419 0.42380 0.50423 0.0
C190 C 0.74991 0.42380 0.53929 0.0
C191 C 0.80405 0.42380 0.58995 0.0
N192 N 0.83064 0.42380 0.59447 0.0
C193 C 0.84151 0.42380 0.55488 0.0
C194 C 0.84150 0.42380 0.45354 0.0
N195 N 0.83063 0.42380 0.41395 0.0
C196 C 0.80404 0.42380 0.41849 0.0
H197 H 0.74185 0.42380 0.43986 0.0
H198 H 0.74186 0.42380 0.56860 0.0
H199 H 0.79242 0.42380 0.61590 0.0
H200 H 0.86119 0.42380 0.55152 0.0
H201 H 0.86119 0.42380 0.45689 0.0
H202 H 0.79240 0.42380 0.39253 0.0
C203 C 0.42429 0.82100 0.48244 0.0
C204 C 0.42429 0.82101 0.52578 0.0
C205 C 0.42429 0.79782 0.54745 0.0
C206 C 0.42429 0.77463 0.52580 0.0
C207 C 0.42429 0.77463 0.48246 0.0
C208 C 0.42429 0.79781 0.46078 0.0
C209 C 0.42429 0.84090 0.45344 0.0
N210 N 0.42429 0.83000 0.41385 0.0
C211 C 0.42429 0.80337 0.41839 0.0
C212 C 0.42430 0.74916 0.46907 0.0
N213 N 0.42430 0.73343 0.50414 0.0
C214 C 0.42430 0.74917 0.53920 0.0
C215 C 0.42429 0.80340 0.58985 0.0
N216 N 0.42429 0.83002 0.59436 0.0
C217 C 0.42429 0.84091 0.55478 0.0
H218 H 0.42429 0.86061 0.45678 0.0
H219 H 0.42429 0.79172 0.39244 0.0
H220 H 0.42430 0.74110 0.43977 0.0
H221 H 0.42430 0.74111 0.56850 0.0
H222 H 0.42429 0.79175 0.61580 0.0
H223 H 0.42429 0.86062 0.55141 0.0
C224 C 0.45689 0.53252 0.50434 0.0
C225 C 0.42970 0.54479 0.50431 0.0
C226 C 0.40249 0.55706 0.50427 0.0
C227 C 0.37533 0.56939 0.50424 0.0
C228 C 0.34817 0.58184 0.50423 0.0
C229 C 0.32103 0.59434 0.50424 0.0
C230 C 0.53271 0.45725 0.50432 0.0
C231 C 0.54517 0.43008 0.50425 0.0
C232 C 0.55765 0.40288 0.50418 0.0
C233 C 0.57004 0.37570 0.50414 0.0
C234 C 0.58234 0.34846 0.50413 0.0
C235 C 0.59457 0.32124 0.50414 0.0
C236 C 0.56924 0.49290 0.50439 0.0
C237 C 0.59638 0.48045 0.50445 0.0
C238 C 0.62355 0.46799 0.50452 0.0
C239 C 0.65070 0.45561 0.50453 0.0
C240 C 0.67790 0.44330 0.50444 0.0
C241 C 0.70509 0.43105 0.50431 0.0
C242 C 0.49343 0.56826 0.50434 0.0
C243 C 0.48096 0.59544 0.50432 0.0
C244 C 0.46848 0.62263 0.50430 0.0
C245 C 0.45609 0.64981 0.50426 0.0
C246 C 0.44378 0.67705 0.50422 0.0
C247 C 0.43155 0.70428 0.50417 0.0
C248 C 0.09990 0.54928 0.82770 0.0
C249 C 0.11350 0.55726 0.79488 0.0
C250 C 0.12709 0.56526 0.76209 0.0
C251 C 0.14574 0.54636 0.73943 0.0
C252 C 0.15933 0.55436 0.70663 0.0
C253 C 0.15429 0.58126 0.69652 0.0
C254 C 0.13564 0.60015 0.71917 0.0
C255 C 0.12203 0.59215 0.75195 0.0
C256 C 0.16788 0.58925 0.66372 0.0
C257 C 0.18146 0.59728 0.63093 0.0
H258 H 0.14950 0.52645 0.74694 0.0
H259 H 0.17312 0.54037 0.68983 0.0
H260 H 0.13190 0.62007 0.71167 0.0
H261 H 0.10822 0.60614 0.76872 0.0
C262 C 0.55063 0.09900 0.82765 0.0
C263 C 0.55846 0.11271 0.79482 0.0
C264 C 0.56628 0.12644 0.76202 0.0
C265 C 0.59280 0.12002 0.74954 0.0
C266 C 0.60061 0.13374 0.71672 0.0
C267 C 0.58190 0.15390 0.69642 0.0
C268 C 0.55538 0.16033 0.70889 0.0
C269 C 0.54756 0.14659 0.74169 0.0
C270 C 0.58972 0.16763 0.66360 0.0
C271 C 0.59750 0.18137 0.63079 0.0
H272 H 0.60665 0.10511 0.76459 0.0
H273 H 0.62024 0.12897 0.70745 0.0
H274 H 0.54153 0.17525 0.69385 0.0
H275 H 0.52793 0.15133 0.75092 0.0
C276 C 0.92643 0.47488 0.18026 0.0
C277 C 0.91279 0.46705 0.21315 0.0
C278 C 0.89914 0.45925 0.24606 0.0
C279 C 0.88166 0.44360 0.23851 0.0
C280 C 0.86803 0.43578 0.27142 0.0
C281 C 0.87184 0.44365 0.31187 0.0
C282 C 0.88932 0.45930 0.31943 0.0
C283 C 0.90298 0.46709 0.28652 0.0
C284 C 0.85820 0.43584 0.34478 0.0
C285 C 0.84457 0.42805 0.37771 0.0
H286 H 0.87881 0.43779 0.20856 0.0
H287 H 0.85510 0.42418 0.26584 0.0
H288 H 0.89216 0.46511 0.34938 0.0
H289 H 0.91592 0.47867 0.29211 0.0
C290 C 0.47639 0.92527 0.18023 0.0
C291 C 0.46842 0.91174 0.21315 0.0
C292 C 0.46047 0.89818 0.24604 0.0
C293 C 0.46295 0.90620 0.28686 0.0
C294 C 0.45498 0.89265 0.31975 0.0
C295 C 0.44457 0.87106 0.31182 0.0
C296 C 0.44208 0.86305 0.27101 0.0
C297 C 0.45003 0.87661 0.23812 0.0
C298 C 0.43660 0.85751 0.34472 0.0
C299 C 0.42864 0.84394 0.37759 0.0
H300 H 0.47068 0.92216 0.29273 0.0
H301 H 0.45679 0.89860 0.34996 0.0
H302 H 0.43436 0.84707 0.26515 0.0
H303 H 0.44818 0.87068 0.20790 0.0
C304 C 0.54968 0.10029 0.18020 0.0
C305 C 0.55763 0.11387 0.21308 0.0
C306 C 0.56559 0.12742 0.24597 0.0
C307 C 0.57138 0.15171 0.23893 0.0
C308 C 0.57934 0.16527 0.27182 0.0
C309 C 0.58154 0.15451 0.31175 0.0
C310 C 0.57574 0.13021 0.31881 0.0
C311 C 0.56776 0.11667 0.28592 0.0
C312 C 0.58949 0.16806 0.34465 0.0
C313 C 0.59746 0.18159 0.37756 0.0
H314 H 0.56978 0.15966 0.20936 0.0
H315 H 0.58360 0.18326 0.26661 0.0
H316 H 0.57736 0.12226 0.34838 0.0
H317 H 0.56347 0.09869 0.29113 0.0
C318 C 0.09972 0.55065 0.18026 0.0
C319 C 0.11339 0.55846 0.21314 0.0
C320 C 0.12703 0.56626 0.24605 0.0
C321 C 0.15428 0.56354 0.24293 0.0
C322 C 0.16792 0.57135 0.27583 0.0
C323 C 0.15432 0.58185 0.31188 0.0
C324 C 0.12707 0.58458 0.31501 0.0
C325 C 0.11342 0.57679 0.28209 0.0
C326 C 0.16796 0.58966 0.34479 0.0
C327 C 0.18159 0.59747 0.37771 0.0
H328 H 0.16435 0.55574 0.21626 0.0
H329 H 0.18809 0.56936 0.27350 0.0
H330 H 0.11700 0.59237 0.34169 0.0
H331 H 0.09325 0.57881 0.28440 0.0
C332 C 0.92624 0.47623 0.82772 0.0
C333 C 0.91263 0.46822 0.79496 0.0
C334 C 0.89904 0.46021 0.76216 0.0
C335 C 0.89393 0.43525 0.76303 0.0
C336 C 0.88033 0.42726 0.73024 0.0
C337 C 0.87188 0.44421 0.69656 0.0
C338 C 0.87699 0.46917 0.69568 0.0
C339 C 0.89057 0.47718 0.72849 0.0
C340 C 0.85828 0.43621 0.66376 0.0
C341 C 0.84469 0.42823 0.63095 0.0
H342 H 0.90021 0.42269 0.78794 0.0
H343 H 0.87652 0.40879 0.73090 0.0
H344 H 0.87072 0.48173 0.67075 0.0
H345 H 0.89435 0.49566 0.72785 0.0
C346 C 0.47546 0.92652 0.82764 0.0
C347 C 0.46768 0.91280 0.79480 0.0
C348 C 0.45986 0.89907 0.76199 0.0
C349 C 0.46334 0.90631 0.72107 0.0
C350 C 0.45554 0.89257 0.68826 0.0
C351 C 0.44423 0.87162 0.69637 0.0
C352 C 0.44075 0.86438 0.73728 0.0
C353 C 0.44858 0.87810 0.77010 0.0
C354 C 0.43643 0.85789 0.66355 0.0
C355 C 0.42861 0.84415 0.63077 0.0
H356 H 0.47169 0.92184 0.71507 0.0
H357 H 0.45814 0.89792 0.65797 0.0
H358 H 0.43239 0.84886 0.74328 0.0
H359 H 0.44601 0.87273 0.80039 0.0
