data_{}
_symmetry_space_group_name_H-M    P1
_symmetry_Int_Tables_number       1
_symmetry_cell_setting            triclinic
loop_
_symmetry_equiv_pos_as_xyz
'x, y, z'
_cell_length_a     85.636
_cell_length_b     85.014
_cell_length_c     45.006
_cell_angle_alpha  90.122
_cell_angle_beta   90.125
_cell_angle_gamma  79.372
loop_
_atom_site_label
_atom_site_type_symbol
_atom_site_fract_x
_atom_site_fract_y
_atom_site_fract_z
_atom_type_partial_charge
H0 H 0.02442 0.53803 0.92441 0.0
H1 H 0.04800 0.49336 0.92184 0.0
H2 H 0.00989 0.53097 0.96277 0.0
H3 H 0.03061 0.48736 0.95781 0.0
H4 H 0.98100 0.46604 0.92400 0.0
H5 H 0.95742 0.51072 0.92159 0.0
H6 H 0.99555 0.47311 0.96251 0.0
H7 H 0.97482 0.51672 0.95773 0.0
H8 H 0.01566 0.53183 0.03069 0.0
H9 H 0.03231 0.53913 0.06583 0.0
H10 H 0.04194 0.49342 0.09205 0.0
H11 H 0.02479 0.48805 0.05598 0.0
H12 H 0.01757 0.46946 0.02155 0.0
H13 H 0.98980 0.47226 0.03038 0.0
H14 H 0.97317 0.46497 0.06536 0.0
H15 H 0.96355 0.51068 0.09185 0.0
H16 H 0.98067 0.51605 0.05593 0.0
H17 H 0.98789 0.53463 0.02169 0.0
C18 C 0.03852 0.51668 0.91984 0.0
C19 C 0.02655 0.52762 0.93165 0.0
C20 C 0.04022 0.50136 0.92967 0.0
C21 C 0.01765 0.52310 0.95446 0.0
C22 C 0.02987 0.49797 0.95200 0.0
C23 C 0.96690 0.48739 0.91949 0.0
C24 C 0.97887 0.47646 0.93130 0.0
C25 C 0.96520 0.50271 0.92942 0.0
C26 C 0.98778 0.48098 0.95420 0.0
C27 C 0.97556 0.50611 0.95184 0.0
C28 C 0.02109 0.52395 0.04314 0.0
C29 C 0.03111 0.52852 0.06414 0.0
C30 C 0.03927 0.51700 0.08244 0.0
C31 C 0.03681 0.50152 0.07967 0.0
C32 C 0.02646 0.49852 0.05787 0.0
C33 C 0.98438 0.48015 0.04285 0.0
C34 C 0.97437 0.47558 0.06376 0.0
C35 C 0.96621 0.48710 0.08208 0.0
C36 C 0.96867 0.50258 0.07944 0.0
C37 C 0.97901 0.50558 0.05774 0.0
S38 S 0.01823 0.47406 0.00222 0.0
S39 S 0.98722 0.53003 0.00232 0.0
N40 N 0.01915 0.50890 0.96524 0.0
N41 N 0.98628 0.49519 0.96508 0.0
N42 N 0.01867 0.50931 0.03941 0.0
N43 N 0.98679 0.49479 0.03925 0.0
Mn44 Mn 0.00272 0.50204 0.00199 0.0
H45 H 0.51024 0.95585 0.92408 0.0
H46 H 0.46669 0.98154 0.92150 0.0
H47 H 0.51571 0.97136 0.96258 0.0
H48 H 0.47476 0.99789 0.95764 0.0
H49 H 0.49515 0.04828 0.92432 0.0
H50 H 0.53869 0.02258 0.92191 0.0
H51 H 0.48968 0.03278 0.96268 0.0
H52 H 0.53063 0.00625 0.95788 0.0
H53 H 0.51235 0.96700 0.03045 0.0
H54 H 0.50560 0.94996 0.06542 0.0
H55 H 0.47086 0.98535 0.09177 0.0
H56 H 0.47913 0.00010 0.05585 0.0
H57 H 0.47253 0.02230 0.02156 0.0
H58 H 0.49305 0.03717 0.03061 0.0
H59 H 0.49981 0.05422 0.06574 0.0
H60 H 0.53455 0.01884 0.09212 0.0
H61 H 0.52627 0.00323 0.05604 0.0
H62 H 0.53286 0.98186 0.02166 0.0
C63 C 0.48751 0.96635 0.91948 0.0
C64 C 0.50236 0.96394 0.93134 0.0
C65 C 0.47690 0.97917 0.92936 0.0
C66 C 0.50560 0.97363 0.95424 0.0
C67 C 0.48181 0.98874 0.95179 0.0
C68 C 0.51787 0.03777 0.91983 0.0
C69 C 0.50302 0.04018 0.93159 0.0
C70 C 0.52848 0.02496 0.92971 0.0
C71 C 0.49979 0.03051 0.95440 0.0
C72 C 0.52358 0.01539 0.95203 0.0
C73 C 0.50381 0.97074 0.04289 0.0
C74 C 0.49985 0.96033 0.06379 0.0
C75 C 0.48722 0.96565 0.08207 0.0
C76 C 0.47933 0.98122 0.07939 0.0
C77 C 0.48447 0.99042 0.05769 0.0
C78 C 0.50159 0.03343 0.04309 0.0
C79 C 0.50555 0.04385 0.06409 0.0
C80 C 0.51818 0.03853 0.08243 0.0
C81 C 0.52608 0.02296 0.07971 0.0
C82 C 0.52094 0.01376 0.05790 0.0
S83 S 0.47492 0.01772 0.00221 0.0
S84 S 0.53047 0.98644 0.00232 0.0
N85 N 0.49581 0.98556 0.96507 0.0
N86 N 0.50958 0.01858 0.96523 0.0
N87 N 0.49640 0.98551 0.03924 0.0
N88 N 0.50900 0.01865 0.03940 0.0
Mn89 Mn 0.50270 0.00208 0.00198 0.0
H90 H 0.46594 0.50854 0.53064 0.0
H91 H 0.46923 0.52607 0.52731 0.0
C92 C 0.50611 0.48605 0.49053 0.0
C93 C 0.53548 0.48831 0.48409 0.0
C94 C 0.49679 0.53554 0.52009 0.0
C95 C 0.46996 0.51582 0.51737 0.0
C96 C 0.49077 0.49338 0.49903 0.0
H97 H 0.50584 0.53767 0.53139 0.0
C98 C 0.48708 0.50917 0.50916 0.0
H99 H 0.48268 0.48747 0.49786 0.0
H100 H 0.51809 0.46588 0.46916 0.0
H101 H 0.49960 0.46646 0.47007 0.0
H102 H 0.48735 0.53825 0.53230 0.0
H103 H 0.52277 0.51666 0.50360 0.0
C104 C 0.51837 0.49496 0.49229 0.0
C105 C 0.49933 0.51809 0.51093 0.0
C106 C 0.50865 0.46860 0.48137 0.0
C107 C 0.51467 0.51075 0.50243 0.0
H108 H 0.53951 0.49560 0.47082 0.0
H109 H 0.53622 0.47806 0.47415 0.0
C110 C 0.13350 0.58383 0.30361 0.0
C111 C 0.13949 0.56873 0.32223 0.0
C112 C 0.15037 0.56970 0.34918 0.0
C113 C 0.15650 0.55470 0.36798 0.0
C114 C 0.16742 0.55579 0.39486 0.0
C115 C 0.17220 0.57186 0.40283 0.0
C116 C 0.16603 0.58686 0.38411 0.0
C117 C 0.15513 0.58578 0.35727 0.0
C118 C 0.18566 0.55805 0.44776 0.0
C119 C 0.19457 0.56290 0.47488 0.0
C120 C 0.21271 0.56149 0.47378 0.0
C121 C 0.22114 0.56922 0.49856 0.0
C122 C 0.21179 0.57656 0.52601 0.0
C123 C 0.19386 0.57655 0.52829 0.0
C124 C 0.18524 0.56974 0.50265 0.0
C125 C 0.16709 0.57093 0.50376 0.0
C126 C 0.22216 0.55360 0.44682 0.0
C127 C 0.22030 0.58439 0.55059 0.0
C128 C 0.23888 0.56985 0.49583 0.0
C129 C 0.25667 0.58916 0.48854 0.0
C130 C 0.27007 0.57465 0.49354 0.0
C131 C 0.28744 0.57700 0.49523 0.0
C132 C 0.29138 0.59386 0.49191 0.0
C133 C 0.27797 0.60836 0.48666 0.0
C134 C 0.26060 0.60600 0.48498 0.0
C135 C 0.30876 0.59618 0.49390 0.0
C136 C 0.32208 0.58163 0.49929 0.0
C137 C 0.18433 0.58417 0.55526 0.0
C138 C 0.17582 0.57723 0.60476 0.0
C139 C 0.16720 0.59476 0.60680 0.0
C140 C 0.15475 0.59985 0.63126 0.0
C141 C 0.15094 0.58738 0.65356 0.0
C142 C 0.15961 0.56986 0.65154 0.0
C143 C 0.17206 0.56478 0.62712 0.0
C144 C 0.13841 0.59236 0.67788 0.0
C145 C 0.13459 0.57976 0.69988 0.0
O146 O 0.18273 0.57309 0.42926 0.0
O147 O 0.18741 0.57206 0.57998 0.0
O148 O 0.23964 0.58692 0.48787 0.0
H149 H 0.13713 0.59566 0.30985 0.0
H150 H 0.13589 0.55688 0.31606 0.0
H151 H 0.15297 0.54280 0.36200 0.0
H152 H 0.17196 0.54471 0.40884 0.0
H153 H 0.16954 0.59877 0.39015 0.0
H154 H 0.15058 0.59687 0.34336 0.0
H155 H 0.19324 0.54777 0.43512 0.0
H156 H 0.17393 0.55472 0.45492 0.0
H157 H 0.16205 0.57903 0.52299 0.0
H158 H 0.16413 0.55851 0.50706 0.0
H159 H 0.16168 0.57619 0.48197 0.0
H160 H 0.21380 0.55356 0.42707 0.0
H161 H 0.22773 0.54074 0.45267 0.0
H162 H 0.23194 0.56047 0.44082 0.0
H163 H 0.21131 0.58986 0.56811 0.0
H164 H 0.22607 0.59415 0.54035 0.0
H165 H 0.22986 0.57498 0.56132 0.0
H166 H 0.24507 0.56659 0.51801 0.0
H167 H 0.24464 0.56136 0.47767 0.0
H168 H 0.26712 0.56218 0.49612 0.0
H169 H 0.29739 0.56628 0.49900 0.0
H170 H 0.28090 0.62084 0.48409 0.0
H171 H 0.25064 0.61673 0.48121 0.0
H172 H 0.31175 0.60864 0.49144 0.0
H173 H 0.31906 0.56919 0.50174 0.0
H174 H 0.18822 0.59576 0.56222 0.0
H175 H 0.17113 0.58664 0.54948 0.0
H176 H 0.16995 0.60392 0.59009 0.0
H177 H 0.14832 0.61282 0.63280 0.0
H178 H 0.15675 0.56065 0.66807 0.0
H179 H 0.17841 0.55180 0.62545 0.0
H180 H 0.13195 0.60532 0.67956 0.0
H181 H 0.14107 0.56682 0.69811 0.0
C182 C 0.58228 0.13426 0.30359 0.0
C183 C 0.59726 0.13473 0.32231 0.0
C184 C 0.59630 0.14605 0.34926 0.0
C185 C 0.61120 0.14668 0.36815 0.0
C186 C 0.61012 0.15809 0.39503 0.0
C187 C 0.59416 0.16883 0.40289 0.0
C188 C 0.57927 0.16815 0.38407 0.0
C189 C 0.58035 0.15677 0.35723 0.0
C190 C 0.60787 0.17729 0.44791 0.0
C191 C 0.60306 0.18806 0.47500 0.0
C192 C 0.60446 0.20581 0.47391 0.0
C193 C 0.59678 0.21716 0.49863 0.0
C194 C 0.58950 0.21044 0.52603 0.0
C195 C 0.58951 0.19238 0.52831 0.0
C196 C 0.59627 0.18118 0.50273 0.0
C197 C 0.59509 0.16334 0.50382 0.0
C198 C 0.61230 0.21241 0.44699 0.0
C199 C 0.58173 0.22190 0.55056 0.0
C200 C 0.59616 0.23525 0.49590 0.0
C201 C 0.57700 0.26030 0.48848 0.0
C202 C 0.59141 0.26844 0.49358 0.0
C203 C 0.58907 0.28681 0.49525 0.0
C204 C 0.57233 0.29700 0.49182 0.0
C205 C 0.55793 0.28884 0.48647 0.0
C206 C 0.56027 0.27047 0.48480 0.0
C207 C 0.57003 0.31535 0.49380 0.0
C208 C 0.58448 0.32341 0.49928 0.0
C209 C 0.58195 0.18558 0.55524 0.0
C210 C 0.58884 0.17445 0.60479 0.0
C211 C 0.57143 0.17223 0.60670 0.0
C212 C 0.56638 0.16158 0.63113 0.0
C213 C 0.57875 0.15314 0.65351 0.0
C214 C 0.59615 0.15540 0.65161 0.0
C215 C 0.60119 0.16607 0.62722 0.0
C216 C 0.57381 0.14235 0.67780 0.0
C217 C 0.58631 0.13386 0.69989 0.0
O218 O 0.59294 0.17989 0.42931 0.0
O219 O 0.59397 0.18422 0.58003 0.0
O220 O 0.57922 0.24231 0.48783 0.0
H221 H 0.57054 0.14229 0.30975 0.0
H222 H 0.60903 0.12673 0.31622 0.0
H223 H 0.62301 0.13874 0.36225 0.0
H224 H 0.62112 0.15857 0.40908 0.0
H225 H 0.56745 0.17608 0.39002 0.0
H226 H 0.56934 0.15627 0.34325 0.0
H227 H 0.61808 0.18114 0.43534 0.0
H228 H 0.61118 0.16425 0.45509 0.0
H229 H 0.58705 0.16125 0.52300 0.0
H230 H 0.60741 0.15577 0.50721 0.0
H231 H 0.58986 0.15983 0.48200 0.0
H232 H 0.61233 0.20398 0.42724 0.0
H233 H 0.62506 0.21329 0.45294 0.0
H234 H 0.60547 0.22481 0.44095 0.0
H235 H 0.57630 0.21487 0.56805 0.0
H236 H 0.57204 0.23131 0.54026 0.0
H237 H 0.59107 0.22806 0.56135 0.0
H238 H 0.59940 0.24029 0.51810 0.0
H239 H 0.60459 0.23792 0.47780 0.0
H240 H 0.60378 0.26087 0.49624 0.0
H241 H 0.59972 0.29287 0.49909 0.0
H242 H 0.54555 0.29639 0.48382 0.0
H243 H 0.54963 0.26439 0.48097 0.0
H244 H 0.55767 0.32296 0.49125 0.0
H245 H 0.59682 0.31577 0.50181 0.0
H246 H 0.57044 0.19378 0.56211 0.0
H247 H 0.57949 0.17320 0.54944 0.0
H248 H 0.56234 0.17839 0.58993 0.0
H249 H 0.55350 0.15988 0.63259 0.0
H250 H 0.60529 0.14913 0.66821 0.0
H251 H 0.61408 0.16768 0.62564 0.0
H252 H 0.56095 0.14062 0.67940 0.0
H253 H 0.59916 0.13561 0.69820 0.0
C254 C 0.87175 0.42150 0.69652 0.0
C255 C 0.87128 0.40640 0.67780 0.0
C256 C 0.86004 0.40737 0.65086 0.0
C257 C 0.85940 0.39237 0.63197 0.0
C258 C 0.84807 0.39346 0.60510 0.0
C259 C 0.83741 0.40953 0.59725 0.0
C260 C 0.83809 0.42453 0.61606 0.0
C261 C 0.84940 0.42345 0.64289 0.0
C262 C 0.82900 0.39572 0.55224 0.0
C263 C 0.81831 0.40057 0.52515 0.0
C264 C 0.80068 0.39916 0.52625 0.0
C265 C 0.78941 0.40689 0.50154 0.0
C266 C 0.79607 0.41423 0.47413 0.0
C267 C 0.81401 0.41422 0.47184 0.0
C268 C 0.82513 0.40741 0.49742 0.0
C269 C 0.84284 0.40860 0.49631 0.0
C270 C 0.79413 0.39127 0.55318 0.0
C271 C 0.78469 0.42206 0.44960 0.0
C272 C 0.77145 0.40752 0.50428 0.0
C273 C 0.74659 0.42683 0.51171 0.0
C274 C 0.73850 0.41232 0.50662 0.0
C275 C 0.72026 0.41467 0.50497 0.0
C276 C 0.71015 0.43154 0.50840 0.0
C277 C 0.71825 0.44603 0.51374 0.0
C278 C 0.73649 0.44367 0.51539 0.0
C279 C 0.69193 0.43385 0.50643 0.0
C280 C 0.68393 0.41930 0.50096 0.0
C281 C 0.82075 0.42184 0.44490 0.0
C282 C 0.83179 0.41490 0.39535 0.0
C283 C 0.83399 0.43243 0.39343 0.0
C284 C 0.84456 0.43752 0.36899 0.0
C285 C 0.85294 0.42505 0.34661 0.0
C286 C 0.85069 0.40753 0.34852 0.0
C287 C 0.84010 0.40245 0.37291 0.0
C288 C 0.86364 0.43003 0.32231 0.0
C289 C 0.87207 0.41743 0.30022 0.0
O290 O 0.82643 0.41076 0.57083 0.0
O291 O 0.82209 0.40973 0.42011 0.0
O292 O 0.76444 0.42459 0.51236 0.0
H293 H 0.86378 0.43333 0.69036 0.0
H294 H 0.87923 0.39456 0.68389 0.0
H295 H 0.86729 0.38047 0.63787 0.0
H296 H 0.84759 0.38238 0.59106 0.0
H297 H 0.83022 0.43644 0.61011 0.0
H298 H 0.84989 0.43454 0.65687 0.0
H299 H 0.82518 0.38544 0.56481 0.0
H300 H 0.84195 0.39239 0.54504 0.0
H301 H 0.84491 0.41670 0.47712 0.0
H302 H 0.85035 0.39618 0.49292 0.0
H303 H 0.84633 0.41386 0.51812 0.0
H304 H 0.80250 0.39123 0.57292 0.0
H305 H 0.79326 0.37841 0.54724 0.0
H306 H 0.78183 0.39814 0.55922 0.0
H307 H 0.79167 0.42753 0.43211 0.0
H308 H 0.77535 0.43182 0.45991 0.0
H309 H 0.77858 0.41266 0.43882 0.0
H310 H 0.76644 0.40426 0.48208 0.0
H311 H 0.76880 0.39903 0.52239 0.0
H312 H 0.74602 0.39985 0.50396 0.0
H313 H 0.71425 0.40395 0.50113 0.0
H314 H 0.71076 0.45851 0.51639 0.0
H315 H 0.74253 0.45440 0.51922 0.0
H316 H 0.68438 0.44631 0.50898 0.0
H317 H 0.69151 0.40686 0.49842 0.0
H318 H 0.81261 0.43343 0.43803 0.0
H319 H 0.83304 0.42431 0.45070 0.0
H320 H 0.82788 0.44159 0.41020 0.0
H321 H 0.84625 0.45049 0.36753 0.0
H322 H 0.85691 0.39832 0.33192 0.0
H323 H 0.83850 0.38947 0.37450 0.0
H324 H 0.86536 0.44299 0.32071 0.0
H325 H 0.87033 0.40449 0.30191 0.0
C326 C 0.42193 0.87013 0.69651 0.0
C327 C 0.43692 0.86409 0.67790 0.0
C328 C 0.43596 0.85313 0.65095 0.0
C329 C 0.45086 0.84695 0.63216 0.0
C330 C 0.44978 0.83594 0.60529 0.0
C331 C 0.43382 0.83112 0.59732 0.0
C332 C 0.41893 0.83734 0.61604 0.0
C333 C 0.42000 0.84833 0.64287 0.0
C334 C 0.44753 0.81756 0.55241 0.0
C335 C 0.44272 0.80858 0.52529 0.0
C336 C 0.44411 0.79030 0.52640 0.0
C337 C 0.43644 0.78181 0.50163 0.0
C338 C 0.42916 0.79122 0.47417 0.0
C339 C 0.42917 0.80928 0.47188 0.0
C340 C 0.43593 0.81797 0.49751 0.0
C341 C 0.43474 0.83626 0.49639 0.0
C342 C 0.45195 0.78079 0.55338 0.0
C343 C 0.42139 0.78264 0.44960 0.0
C344 C 0.43582 0.76394 0.50438 0.0
C345 C 0.41666 0.74602 0.51168 0.0
C346 C 0.43106 0.73252 0.50669 0.0
C347 C 0.42873 0.71502 0.50501 0.0
C348 C 0.41199 0.71105 0.50833 0.0
C349 C 0.39759 0.72456 0.51358 0.0
C350 C 0.39993 0.74206 0.51525 0.0
C351 C 0.40969 0.69355 0.50635 0.0
C352 C 0.42413 0.68012 0.50098 0.0
C353 C 0.42160 0.81888 0.44490 0.0
C354 C 0.42849 0.82744 0.39539 0.0
C355 C 0.41109 0.83612 0.39335 0.0
C356 C 0.40603 0.84865 0.36888 0.0
C357 C 0.41841 0.85249 0.34658 0.0
C358 C 0.43580 0.84377 0.34861 0.0
C359 C 0.44085 0.83123 0.37304 0.0
C360 C 0.41347 0.86512 0.32225 0.0
C361 C 0.42597 0.86895 0.30024 0.0
O362 O 0.43260 0.82052 0.57090 0.0
O363 O 0.43363 0.81577 0.42019 0.0
O364 O 0.41888 0.76318 0.51233 0.0
H365 H 0.41019 0.86647 0.69027 0.0
H366 H 0.44868 0.86772 0.68406 0.0
H367 H 0.46267 0.85051 0.63814 0.0
H368 H 0.46077 0.83137 0.59131 0.0
H369 H 0.40711 0.83381 0.61001 0.0
H370 H 0.40899 0.85292 0.65678 0.0
H371 H 0.45774 0.80992 0.56505 0.0
H372 H 0.45084 0.82938 0.54523 0.0
H373 H 0.42670 0.84133 0.47715 0.0
H374 H 0.44707 0.83924 0.49309 0.0
H375 H 0.42952 0.84171 0.51817 0.0
H376 H 0.45199 0.78922 0.57312 0.0
H377 H 0.46472 0.77518 0.54752 0.0
H378 H 0.44513 0.77094 0.55938 0.0
H379 H 0.41596 0.79169 0.43207 0.0
H380 H 0.41169 0.77683 0.45984 0.0
H381 H 0.43072 0.77302 0.43888 0.0
H382 H 0.43906 0.75769 0.48220 0.0
H383 H 0.44425 0.75814 0.52254 0.0
H384 H 0.44344 0.73549 0.50410 0.0
H385 H 0.43937 0.70500 0.50125 0.0
H386 H 0.38521 0.72161 0.51615 0.0
H387 H 0.38928 0.75209 0.51900 0.0
H388 H 0.39732 0.69053 0.50882 0.0
H389 H 0.43648 0.68317 0.49853 0.0
H390 H 0.41010 0.81496 0.43795 0.0
H391 H 0.41915 0.83218 0.45067 0.0
H392 H 0.40199 0.83335 0.41006 0.0
H393 H 0.39316 0.85513 0.36733 0.0
H394 H 0.44494 0.84664 0.33207 0.0
H395 H 0.45374 0.82483 0.37471 0.0
H396 H 0.40060 0.87162 0.32056 0.0
H397 H 0.43882 0.86243 0.30202 0.0
C398 C 0.41619 0.53842 0.50082 0.0
N399 N 0.40208 0.52952 0.50090 0.0
N400 N 0.38494 0.53902 0.50089 0.0
C401 C 0.38189 0.55743 0.50080 0.0
N402 N 0.39600 0.56637 0.50072 0.0
N403 N 0.41316 0.55686 0.50072 0.0
C404 C 0.43334 0.52889 0.50082 0.0
C405 C 0.45054 0.51953 0.50082 0.0
C406 C 0.36470 0.56682 0.50079 0.0
C407 C 0.34748 0.57612 0.50078 0.0
C408 C 0.53809 0.41875 0.50077 0.0
N409 N 0.52932 0.40449 0.50071 0.0
N410 N 0.53881 0.38725 0.50071 0.0
C411 C 0.55708 0.38425 0.50076 0.0
N412 N 0.56590 0.39851 0.50082 0.0
N413 N 0.55639 0.41577 0.50083 0.0
C414 C 0.52857 0.43600 0.50078 0.0
C415 C 0.51921 0.45330 0.50080 0.0
C416 C 0.56646 0.36696 0.50076 0.0
C417 C 0.57576 0.34963 0.50075 0.0
C418 C 0.58927 0.46576 0.50020 0.0
N419 N 0.59253 0.44734 0.50031 0.0
N420 N 0.60974 0.43801 0.50015 0.0
C421 C 0.62370 0.44709 0.49990 0.0
N422 N 0.62047 0.46554 0.49980 0.0
N423 N 0.60324 0.47488 0.49995 0.0
C424 C 0.57204 0.47508 0.50036 0.0
C425 C 0.55488 0.48456 0.50052 0.0
C426 C 0.64087 0.43764 0.49975 0.0
C427 C 0.65800 0.42811 0.49961 0.0
C428 C 0.46742 0.58540 0.50025 0.0
N429 N 0.44913 0.58862 0.50034 0.0
N430 N 0.43981 0.60593 0.50018 0.0
C431 C 0.44876 0.62004 0.49993 0.0
N432 N 0.46707 0.61685 0.49984 0.0
N433 N 0.47641 0.59952 0.49999 0.0
C434 C 0.47672 0.56807 0.50039 0.0
C435 C 0.48619 0.55081 0.50054 0.0
C436 C 0.43932 0.63730 0.49978 0.0
C437 C 0.42980 0.65454 0.49962 0.0
C438 C 0.06917 0.54001 0.84672 0.0
C439 C 0.05114 0.54121 0.84245 0.0
C440 C 0.04149 0.53352 0.86529 0.0
C441 C 0.04986 0.52465 0.89239 0.0
C442 C 0.06789 0.52346 0.89665 0.0
C443 C 0.07753 0.53114 0.87382 0.0
C444 C 0.07888 0.54764 0.82392 0.0
C445 C 0.08869 0.55522 0.80124 0.0
C446 C 0.09859 0.56277 0.77865 0.0
C447 C 0.09053 0.57164 0.75127 0.0
C448 C 0.10050 0.57913 0.72870 0.0
C449 C 0.11851 0.57776 0.73353 0.0
C450 C 0.12657 0.56889 0.76091 0.0
C451 C 0.11660 0.56140 0.78346 0.0
H452 H 0.04494 0.54777 0.82237 0.0
H453 H 0.02814 0.53440 0.86212 0.0
H454 H 0.07409 0.51690 0.91672 0.0
H455 H 0.09088 0.53026 0.87697 0.0
H456 H 0.07720 0.57265 0.74770 0.0
H457 H 0.09453 0.58571 0.70845 0.0
H458 H 0.13990 0.56787 0.76448 0.0
H459 H 0.12256 0.55485 0.80375 0.0
C460 C 0.54013 0.06923 0.84689 0.0
C461 C 0.54919 0.05284 0.85747 0.0
C462 C 0.54153 0.04310 0.88025 0.0
C463 C 0.52482 0.04975 0.89242 0.0
C464 C 0.51576 0.06613 0.88182 0.0
C465 C 0.52342 0.07586 0.85906 0.0
C466 C 0.54774 0.07903 0.82418 0.0
C467 C 0.55526 0.08891 0.80147 0.0
C468 C 0.56270 0.09888 0.77880 0.0
C469 C 0.57943 0.09255 0.76639 0.0
C470 C 0.58683 0.10259 0.74376 0.0
C471 C 0.57749 0.11894 0.73354 0.0
C472 C 0.56077 0.12525 0.74596 0.0
C473 C 0.55337 0.11522 0.76858 0.0
H474 H 0.56157 0.04793 0.84847 0.0
H475 H 0.54824 0.03098 0.88810 0.0
H476 H 0.50339 0.07105 0.89081 0.0
H477 H 0.51672 0.08799 0.85121 0.0
H478 H 0.58633 0.08045 0.77396 0.0
H479 H 0.59920 0.09790 0.73454 0.0
H480 H 0.55386 0.13735 0.73840 0.0
H481 H 0.54098 0.11989 0.77775 0.0
C482 C 0.93532 0.46421 0.15380 0.0
C483 C 0.95273 0.46544 0.16028 0.0
C484 C 0.96232 0.47304 0.13722 0.0
C485 C 0.95451 0.47943 0.10771 0.0
C486 C 0.93711 0.47821 0.10125 0.0
C487 C 0.92752 0.47061 0.12430 0.0
C488 C 0.92569 0.45659 0.17674 0.0
C489 C 0.91596 0.44899 0.19955 0.0
C490 C 0.90615 0.44138 0.22222 0.0
C491 C 0.91370 0.43483 0.25183 0.0
C492 C 0.90385 0.42720 0.27441 0.0
C493 C 0.88646 0.42614 0.26737 0.0
C494 C 0.87892 0.43270 0.23775 0.0
C495 C 0.88877 0.44032 0.21518 0.0
H496 H 0.95851 0.46070 0.18212 0.0
H497 H 0.97521 0.47394 0.14200 0.0
H498 H 0.93132 0.48295 0.07942 0.0
H499 H 0.91464 0.46970 0.11951 0.0
H500 H 0.92657 0.43561 0.25704 0.0
H501 H 0.90942 0.42236 0.29635 0.0
H502 H 0.86605 0.43192 0.23253 0.0
H503 H 0.88319 0.44520 0.19327 0.0
C504 C 0.46493 0.93369 0.15255 0.0
C505 C 0.45838 0.93580 0.12062 0.0
C506 C 0.46597 0.94571 0.09805 0.0
C507 C 0.48010 0.95349 0.10740 0.0
C508 C 0.48665 0.95137 0.13932 0.0
C509 C 0.47906 0.94147 0.16188 0.0
C510 C 0.45737 0.92382 0.17523 0.0
C511 C 0.44988 0.91398 0.19805 0.0
C512 C 0.44246 0.90417 0.22102 0.0
C513 C 0.42827 0.89633 0.21230 0.0
C514 C 0.42086 0.88656 0.23539 0.0
C515 C 0.42765 0.88463 0.26718 0.0
C516 C 0.44184 0.89248 0.27588 0.0
C517 C 0.44924 0.90224 0.25280 0.0
H518 H 0.44791 0.93004 0.11370 0.0
H519 H 0.46112 0.94728 0.07441 0.0
H520 H 0.49711 0.95712 0.14624 0.0
H521 H 0.48390 0.93990 0.18552 0.0
H522 H 0.42324 0.89776 0.18878 0.0
H523 H 0.41036 0.88074 0.22894 0.0
H524 H 0.44687 0.89105 0.29939 0.0
H525 H 0.45976 0.90804 0.25922 0.0
C526 C 0.54067 0.07016 0.15362 0.0
C527 C 0.55110 0.05663 0.13597 0.0
C528 C 0.54343 0.04685 0.11314 0.0
C529 C 0.52534 0.05062 0.10795 0.0
C530 C 0.51493 0.06415 0.12558 0.0
C531 C 0.52259 0.07392 0.14841 0.0
C532 C 0.54827 0.07994 0.17653 0.0
C533 C 0.55576 0.08979 0.19948 0.0
C534 C 0.56315 0.09968 0.22248 0.0
C535 C 0.58120 0.09611 0.22822 0.0
C536 C 0.58853 0.10602 0.25132 0.0
C537 C 0.57782 0.11950 0.26865 0.0
C538 C 0.55978 0.12306 0.26290 0.0
C539 C 0.55245 0.11315 0.23982 0.0
H540 H 0.56449 0.05383 0.13983 0.0
H541 H 0.55114 0.03683 0.10008 0.0
H542 H 0.50154 0.06695 0.12174 0.0
H543 H 0.51488 0.08394 0.16148 0.0
H544 H 0.58912 0.08614 0.21540 0.0
H545 H 0.60189 0.10340 0.25555 0.0
H546 H 0.55186 0.13303 0.27572 0.0
H547 H 0.53910 0.11580 0.23553 0.0
C548 C 0.07078 0.53996 0.15335 0.0
C549 C 0.07766 0.53510 0.12238 0.0
C550 C 0.06782 0.52745 0.09968 0.0
C551 C 0.05109 0.52469 0.10794 0.0
C552 C 0.04421 0.52956 0.13890 0.0
C553 C 0.05406 0.53720 0.16159 0.0
C554 C 0.08058 0.54758 0.17615 0.0
C555 C 0.09030 0.55520 0.19909 0.0
C556 C 0.09994 0.56281 0.22218 0.0
C557 C 0.11673 0.56563 0.21455 0.0
C558 C 0.12634 0.57322 0.23775 0.0
C559 C 0.11916 0.57798 0.26856 0.0
C560 C 0.10238 0.57515 0.27617 0.0
C561 C 0.09277 0.56757 0.25298 0.0
H562 H 0.09005 0.53714 0.11627 0.0
H563 H 0.07291 0.52384 0.07676 0.0
H564 H 0.03183 0.52752 0.14502 0.0
H565 H 0.04897 0.54080 0.18451 0.0
H566 H 0.12204 0.56211 0.19175 0.0
H567 H 0.13876 0.57533 0.23211 0.0
H568 H 0.09706 0.57868 0.29896 0.0
H569 H 0.08034 0.56549 0.25859 0.0
C570 C 0.93546 0.46453 0.84668 0.0
C571 C 0.92745 0.47321 0.87429 0.0
C572 C 0.93743 0.48070 0.89698 0.0
C573 C 0.95540 0.47953 0.89205 0.0
C574 C 0.96339 0.47086 0.86443 0.0
C575 C 0.95342 0.46336 0.84176 0.0
C576 C 0.92556 0.45699 0.82395 0.0
C577 C 0.91575 0.44941 0.80112 0.0
C578 C 0.90603 0.44178 0.77818 0.0
C579 C 0.88806 0.44271 0.78265 0.0
C580 C 0.87840 0.43503 0.75968 0.0
C581 C 0.88671 0.42643 0.73225 0.0
C582 C 0.90468 0.42550 0.72779 0.0
C583 C 0.91433 0.43318 0.75076 0.0
H584 H 0.91415 0.47407 0.87795 0.0
H585 H 0.93151 0.48712 0.91743 0.0
H586 H 0.97669 0.46999 0.86077 0.0
H587 H 0.95934 0.45694 0.82131 0.0
H588 H 0.88191 0.44907 0.80296 0.0
H589 H 0.86509 0.43573 0.76296 0.0
H590 H 0.91083 0.41914 0.70749 0.0
H591 H 0.92763 0.43251 0.74745 0.0
C592 C 0.46601 0.93429 0.84608 0.0
C593 C 0.48393 0.93461 0.84513 0.0
C594 C 0.49128 0.94460 0.86806 0.0
C595 C 0.48072 0.95425 0.89193 0.0
C596 C 0.46281 0.95392 0.89288 0.0
C597 C 0.45546 0.94394 0.86995 0.0
C598 C 0.45859 0.92436 0.82317 0.0
C599 C 0.45107 0.91447 0.80035 0.0
C600 C 0.44345 0.90462 0.77760 0.0
C601 C 0.45372 0.89493 0.75340 0.0
C602 C 0.44602 0.88512 0.73065 0.0
C603 C 0.42807 0.88501 0.73212 0.0
C604 C 0.41781 0.89470 0.75633 0.0
C605 C 0.42550 0.90450 0.77906 0.0
H606 H 0.49174 0.92748 0.82744 0.0
H607 H 0.50454 0.94485 0.86736 0.0
H608 H 0.45500 0.96105 0.91055 0.0
H609 H 0.44220 0.94370 0.87064 0.0
H610 H 0.46700 0.89502 0.75231 0.0
H611 H 0.45362 0.87793 0.71275 0.0
H612 H 0.40453 0.89461 0.75742 0.0
H613 H 0.41791 0.91166 0.79700 0.0
