data_{}
_symmetry_space_group_name_H-M    P1
_symmetry_Int_Tables_number       1
_symmetry_cell_setting            triclinic
loop_
_symmetry_equiv_pos_as_xyz
'x, y, z'
_cell_length_a     62.175
_cell_length_b     61.360
_cell_length_c     37.343
_cell_angle_alpha  89.990
_cell_angle_beta   90.128
_cell_angle_gamma  125.812
loop_
_atom_site_label
_atom_site_type_symbol
_atom_site_fract_x
_atom_site_fract_y
_atom_site_fract_z
_atom_type_partial_charge
H0 H 0.09948 0.06833 0.00701 0.0
C1 C 0.98967 0.98609 0.99990 0.0
H2 H 0.09336 0.06515 0.04817 0.0
H3 H 0.04230 0.00712 0.01053 0.0
H4 H 0.07597 0.09114 0.02311 0.0
H5 H 0.98974 0.03068 0.00205 0.0
H6 H 0.03412 0.09303 0.03642 0.0
H7 H 0.04009 0.09820 0.99530 0.0
C8 C 0.08755 0.05582 0.02534 0.0
C9 C 0.05949 0.04747 0.01738 0.0
C10 C 0.03852 0.02123 0.01106 0.0
C11 C 0.01318 0.01475 0.00393 0.0
C12 C 0.00989 0.03575 0.00362 0.0
C13 C 0.03059 0.06147 0.01084 0.0
C14 C 0.05603 0.06792 0.01728 0.0
C15 C 0.02844 0.08479 0.01287 0.0
H16 H 0.97853 0.98484 0.98022 0.0
H17 H 0.99568 0.97515 0.99316 0.0
C18 C 0.91667 0.34753 0.78208 0.0
C19 C 0.89702 0.32239 0.80450 0.0
C20 C 0.90713 0.31530 0.83695 0.0
C21 C 0.88773 0.29017 0.85958 0.0
C22 C 0.89807 0.28321 0.89196 0.0
C23 C 0.92775 0.30138 0.90157 0.0
C24 C 0.94711 0.32653 0.87903 0.0
C25 C 0.93679 0.33348 0.84670 0.0
C26 C 0.91604 0.27221 0.95567 0.0
C27 C 0.93085 0.27191 0.98835 0.0
C28 C 0.94283 0.25600 0.98698 0.0
C29 C 0.96192 0.25999 0.01683 0.0
C30 C 0.96641 0.27718 0.04994 0.0
C31 C 0.95233 0.29102 0.05273 0.0
C32 C 0.93456 0.28841 0.02184 0.0
C33 C 0.92224 0.30405 0.02321 0.0
C34 C 0.93751 0.23797 0.95446 0.0
C35 C 0.98573 0.28125 0.07955 0.0
C36 C 0.97686 0.24715 0.01350 0.0
C37 C 0.02197 0.25966 0.00470 0.0
C38 C 0.00908 0.22959 0.01069 0.0
C39 C 0.02652 0.21937 0.01268 0.0
C40 C 0.05681 0.23926 0.00869 0.0
C41 C 0.06968 0.26932 0.00239 0.0
C42 C 0.05223 0.27953 0.00010 0.0
C43 C 0.07419 0.22899 0.01106 0.0
C44 C 0.06118 0.19892 0.01751 0.0
C45 C 0.95713 0.30873 0.08526 0.0
C46 C 0.93925 0.30587 0.14493 0.0
C47 C 0.96077 0.33635 0.14741 0.0
C48 C 0.95922 0.35288 0.17693 0.0
C49 C 0.93610 0.33887 0.20380 0.0
C50 C 0.91465 0.30837 0.20133 0.0
C51 C 0.91622 0.29185 0.17187 0.0
C52 C 0.93430 0.35532 0.23314 0.0
C53 C 0.91098 0.34114 0.25966 0.0
O54 O 0.93800 0.29492 0.93340 0.0
O55 O 0.94002 0.28989 0.11503 0.0
O56 O 0.00498 0.26976 0.00392 0.0
H57 H 0.93860 0.36080 0.78960 0.0
H58 H 0.87508 0.30906 0.79706 0.0
H59 H 0.86576 0.27672 0.85238 0.0
H60 H 0.88376 0.26465 0.90879 0.0
H61 H 0.96907 0.34001 0.88630 0.0
H62 H 0.95111 0.35207 0.82995 0.0
H63 H 0.90541 0.25238 0.94042 0.0
H64 H 0.90145 0.27674 0.96433 0.0
H65 H 0.93135 0.31895 0.04641 0.0
H66 H 0.89988 0.28946 0.02719 0.0
H67 H 0.92648 0.31539 0.99697 0.0
H68 H 0.93089 0.24438 0.93067 0.0
H69 H 0.92114 0.21618 0.96149 0.0
H70 H 0.95627 0.23976 0.94722 0.0
H71 H 0.98750 0.29563 0.10070 0.0
H72 H 0.00601 0.29008 0.06721 0.0
H73 H 0.97806 0.26110 0.09245 0.0
H74 H 0.97646 0.23793 0.04023 0.0
H75 H 0.96767 0.23116 0.99160 0.0
H76 H 0.98665 0.21492 0.01379 0.0
H77 H 0.01702 0.19712 0.01720 0.0
H78 H 0.09210 0.28401 0.99990 0.0
H79 H 0.06171 0.30180 0.99590 0.0
H80 H 0.09663 0.24361 0.00809 0.0
H81 H 0.03873 0.18435 0.02046 0.0
H82 H 0.97888 0.32148 0.09364 0.0
H83 H 0.95075 0.32228 0.07832 0.0
H84 H 0.97771 0.34668 0.12728 0.0
H85 H 0.97509 0.37548 0.17881 0.0
H86 H 0.89755 0.29806 0.22126 0.0
H87 H 0.90027 0.26929 0.16984 0.0
H88 H 0.95013 0.37792 0.23519 0.0
H89 H 0.89519 0.31854 0.25750 0.0
C90 C 0.46629 0.13866 0.25601 0.0
C91 C 0.45729 0.11362 0.23350 0.0
C92 C 0.43892 0.10625 0.20101 0.0
C93 C 0.42967 0.08122 0.17829 0.0
C94 C 0.41123 0.07398 0.14588 0.0
C95 C 0.40207 0.09176 0.13634 0.0
C96 C 0.41139 0.11681 0.15897 0.0
C97 C 0.42979 0.12404 0.19133 0.0
C98 C 0.38042 0.06250 0.08213 0.0
C99 C 0.36510 0.06189 0.04945 0.0
C100 C 0.33470 0.04556 0.05075 0.0
C101 C 0.31999 0.04922 0.02092 0.0
C102 C 0.33519 0.06651 0.98787 0.0
C103 C 0.36533 0.08079 0.98514 0.0
C104 C 0.38030 0.07851 0.01601 0.0
C105 C 0.41073 0.09457 0.01470 0.0
C106 C 0.31938 0.02743 0.08321 0.0
C107 C 0.32033 0.07024 0.95827 0.0
C108 C 0.29012 0.03592 0.02419 0.0
C109 C 0.25886 0.04767 0.03304 0.0
C110 C 0.23736 0.01751 0.02694 0.0
C111 C 0.20799 0.00683 0.02490 0.0
C112 C 0.20018 0.02634 0.02897 0.0
C113 C 0.22170 0.05648 0.03537 0.0
C114 C 0.25107 0.06716 0.03740 0.0
C115 C 0.17081 0.01560 0.02656 0.0
C116 C 0.14943 0.98545 0.01999 0.0
C117 C 0.38082 0.09861 0.95267 0.0
C118 C 0.39561 0.09607 0.89299 0.0
C119 C 0.40886 0.12647 0.89062 0.0
C120 C 0.42942 0.14322 0.86117 0.0
C121 C 0.43671 0.12952 0.83425 0.0
C122 C 0.42337 0.09910 0.83660 0.0
C123 C 0.40280 0.08235 0.86600 0.0
C124 C 0.45743 0.14619 0.80497 0.0
C125 C 0.46472 0.13232 0.77840 0.0
O126 O 0.38429 0.08502 0.10448 0.0
O127 O 0.37648 0.07989 0.92283 0.0
O128 O 0.28765 0.05823 0.03385 0.0
H129 H 0.45935 0.15164 0.24853 0.0
H130 H 0.46417 0.10058 0.24088 0.0
H131 H 0.43645 0.06806 0.18544 0.0
H132 H 0.40439 0.05549 0.12899 0.0
H133 H 0.40465 0.13000 0.15175 0.0
H134 H 0.43666 0.14256 0.20814 0.0
H135 H 0.36840 0.04265 0.09731 0.0
H136 H 0.40037 0.06736 0.07349 0.0
H137 H 0.41863 0.10946 0.99156 0.0
H138 H 0.41658 0.08026 0.01068 0.0
H139 H 0.41946 0.10596 0.04099 0.0
H140 H 0.33343 0.03404 0.10702 0.0
H141 H 0.31091 0.00572 0.07609 0.0
H142 H 0.30245 0.02886 0.09045 0.0
H143 H 0.33505 0.08475 0.93718 0.0
H144 H 0.30995 0.07876 0.97065 0.0
H145 H 0.30493 0.05001 0.94530 0.0
H146 H 0.27994 0.02661 0.99744 0.0
H147 H 0.28105 0.01994 0.04603 0.0
H148 H 0.24320 0.00312 0.02378 0.0
H149 H 0.19203 0.98451 0.02030 0.0
H150 H 0.21590 0.07090 0.03852 0.0
H151 H 0.26706 0.08949 0.04199 0.0
H152 H 0.16491 0.02994 0.02958 0.0
H153 H 0.15540 0.97116 0.01699 0.0
H154 H 0.37345 0.11107 0.94434 0.0
H155 H 0.40283 0.11244 0.95966 0.0
H156 H 0.40359 0.13658 0.91079 0.0
H157 H 0.43932 0.16576 0.85937 0.0
H158 H 0.42882 0.08901 0.81664 0.0
H159 H 0.39303 0.05986 0.86795 0.0
H160 H 0.46737 0.16873 0.80300 0.0
H161 H 0.45474 0.10978 0.78048 0.0
C162 C 0.69347 0.57137 0.78119 0.0
C163 C 0.71804 0.58000 0.80377 0.0
C164 C 0.72566 0.59869 0.83621 0.0
C165 C 0.75023 0.60757 0.85900 0.0
C166 C 0.75773 0.62634 0.89136 0.0
C167 C 0.74068 0.63620 0.90080 0.0
C168 C 0.71608 0.62725 0.87810 0.0
C169 C 0.70860 0.60851 0.84579 0.0
C170 C 0.76967 0.65772 0.95504 0.0
C171 C 0.77063 0.67345 0.98766 0.0
C172 C 0.78728 0.70428 0.98631 0.0
C173 C 0.78409 0.71950 0.01607 0.0
C174 C 0.76689 0.70431 0.04911 0.0
C175 C 0.75225 0.67368 0.05190 0.0
C176 C 0.75410 0.65824 0.02109 0.0
C177 C 0.73772 0.62736 0.02246 0.0
C178 C 0.80528 0.71958 0.95386 0.0
C179 C 0.76363 0.71967 0.07864 0.0
C180 C 0.79775 0.74986 0.01274 0.0
C181 C 0.78711 0.78229 0.00372 0.0
C182 C 0.81697 0.80364 0.00986 0.0
C183 C 0.82809 0.83356 0.01183 0.0
C184 C 0.80932 0.84207 0.00766 0.0
C185 C 0.77947 0.82071 0.00122 0.0
C186 C 0.76836 0.79079 0.99990 0.0
C187 C 0.82049 0.87199 0.01000 0.0
C188 C 0.85034 0.89322 0.01660 0.0
C189 C 0.73454 0.65821 0.08436 0.0
C190 C 0.73664 0.64294 0.14411 0.0
C191 C 0.70674 0.63007 0.14640 0.0
C192 C 0.68995 0.60936 0.17587 0.0
C193 C 0.70309 0.60152 0.20288 0.0
C194 C 0.73300 0.61447 0.20059 0.0
C195 C 0.74979 0.63520 0.17118 0.0
C196 C 0.68636 0.58064 0.23216 0.0
C197 C 0.69966 0.57279 0.25882 0.0
O198 O 0.74767 0.65430 0.93262 0.0
O199 O 0.75285 0.66220 0.11425 0.0
O200 O 0.77613 0.75296 0.00298 0.0
H201 H 0.68102 0.57882 0.78859 0.0
H202 H 0.73055 0.57259 0.79646 0.0
H203 H 0.76286 0.60028 0.85192 0.0
H204 H 0.77588 0.63291 0.90830 0.0
H205 H 0.70343 0.63450 0.88525 0.0
H206 H 0.69042 0.60191 0.82893 0.0
H207 H 0.78927 0.66958 0.93989 0.0
H208 H 0.76444 0.63733 0.96374 0.0
H209 H 0.72305 0.61962 0.04557 0.0
H210 H 0.75148 0.62099 0.02656 0.0
H211 H 0.72644 0.61868 0.99616 0.0
H212 H 0.79850 0.70531 0.93008 0.0
H213 H 0.82660 0.72775 0.96103 0.0
H214 H 0.80432 0.73702 0.94655 0.0
H215 H 0.74916 0.70490 0.09973 0.0
H216 H 0.75561 0.73055 0.06619 0.0
H217 H 0.78369 0.73499 0.09164 0.0
H218 H 0.80706 0.76010 0.03949 0.0
H219 H 0.81352 0.75879 0.99092 0.0
H220 H 0.83082 0.79728 0.01310 0.0
H221 H 0.85019 0.84941 0.01646 0.0
H222 H 0.76560 0.82703 0.99800 0.0
H223 H 0.74624 0.77491 0.99464 0.0
H224 H 0.80670 0.87842 0.00690 0.0
H225 H 0.86408 0.88672 0.01968 0.0
H226 H 0.72261 0.66608 0.09262 0.0
H227 H 0.72054 0.63593 0.07740 0.0
H228 H 0.69705 0.63575 0.12618 0.0
H229 H 0.66779 0.59975 0.17762 0.0
H230 H 0.74267 0.60862 0.22061 0.0
H231 H 0.77190 0.64468 0.16928 0.0
H232 H 0.66420 0.57099 0.23408 0.0
H233 H 0.72183 0.58249 0.25679 0.0
O234 O 0.72423 0.39153 0.46271 0.0
O235 O 0.68529 0.38158 0.47988 0.0
O236 O 0.73582 0.34591 0.46456 0.0
O237 O 0.74147 0.35971 0.41156 0.0
O238 O 0.64806 0.32327 0.47909 0.0
O239 O 0.67890 0.32877 0.44068 0.0
O240 O 0.72426 0.39156 0.57546 0.0
O241 O 0.68531 0.38160 0.55805 0.0
O242 O 0.73585 0.34594 0.57372 0.0
O243 O 0.74153 0.35976 0.62675 0.0
O244 O 0.64808 0.32329 0.55864 0.0
O245 O 0.67895 0.32881 0.59725 0.0
O246 O 0.69609 0.34474 0.51901 0.0
C247 C 0.70782 0.39712 0.46798 0.0
C248 C 0.74517 0.34967 0.43603 0.0
C249 C 0.65500 0.31868 0.45043 0.0
Zn250 Zn 0.71058 0.35400 0.46991 0.0
Zn251 Zn 0.71061 0.35402 0.56820 0.0
Zn252 Zn 0.66724 0.35148 0.51892 0.0
H253 H 0.75267 0.37647 0.41228 0.0
C254 C 0.70785 0.39714 0.57008 0.0
C255 C 0.74522 0.34971 0.60231 0.0
C256 C 0.65504 0.31871 0.58735 0.0
H257 H 0.75274 0.37652 0.62609 0.0
C258 C 0.89725 0.35208 0.74659 0.0
C259 C 0.87561 0.35109 0.72486 0.0
C260 C 0.85400 0.35013 0.70309 0.0
C261 C 0.82510 0.32492 0.70437 0.0
C262 C 0.80349 0.32396 0.68262 0.0
C263 C 0.81078 0.34819 0.65954 0.0
C264 C 0.83968 0.37340 0.65826 0.0
C265 C 0.86129 0.37437 0.68005 0.0
C266 C 0.78917 0.34723 0.63779 0.0
C267 C 0.76757 0.34629 0.61601 0.0
H268 H 0.81971 0.30696 0.72142 0.0
H269 H 0.78209 0.30530 0.68359 0.0
H270 H 0.84507 0.39135 0.64119 0.0
H271 H 0.88268 0.39304 0.67911 0.0
C272 C 0.49237 0.15706 0.29165 0.0
C273 C 0.51548 0.18015 0.31386 0.0
C274 C 0.53860 0.20321 0.33607 0.0
C275 C 0.55424 0.23229 0.32214 0.0
C276 C 0.57735 0.25536 0.34436 0.0
C277 C 0.58483 0.24934 0.38050 0.0
C278 C 0.56919 0.22027 0.39443 0.0
C279 C 0.54606 0.19720 0.37223 0.0
C280 C 0.60794 0.27242 0.40272 0.0
C281 C 0.63105 0.29546 0.42496 0.0
H282 H 0.54872 0.23674 0.29537 0.0
H283 H 0.58891 0.27689 0.33406 0.0
H284 H 0.57472 0.21582 0.42119 0.0
H285 H 0.53447 0.17568 0.38255 0.0
C286 C 0.49252 0.15711 0.74513 0.0
C287 C 0.51564 0.18017 0.72308 0.0
C288 C 0.53874 0.20324 0.70100 0.0
C289 C 0.56680 0.22098 0.71730 0.0
C290 C 0.58990 0.24404 0.69522 0.0
C291 C 0.58494 0.24938 0.65686 0.0
C292 C 0.55689 0.23164 0.64055 0.0
C293 C 0.53379 0.20857 0.66262 0.0
C294 C 0.60804 0.27244 0.63478 0.0
C295 C 0.63112 0.29550 0.61268 0.0
H296 H 0.57046 0.21704 0.74572 0.0
H297 H 0.61067 0.25715 0.70728 0.0
H298 H 0.55322 0.23559 0.61214 0.0
H299 H 0.51303 0.19543 0.65055 0.0
C300 C 0.69076 0.54067 0.30110 0.0
C301 C 0.69384 0.52193 0.32439 0.0
C302 C 0.69695 0.50321 0.34765 0.0
C303 C 0.69421 0.50315 0.38863 0.0
C304 C 0.69730 0.48441 0.41189 0.0
C305 C 0.70318 0.46576 0.39417 0.0
C306 C 0.70592 0.46581 0.35320 0.0
C307 C 0.70280 0.48453 0.32993 0.0
C308 C 0.70627 0.44702 0.41744 0.0
C309 C 0.70938 0.42828 0.44067 0.0
H310 H 0.68989 0.51698 0.40175 0.0
H311 H 0.69525 0.48434 0.44222 0.0
H312 H 0.71026 0.45199 0.34009 0.0
H313 H 0.70482 0.48457 0.29960 0.0
C314 C 0.69084 0.54080 0.73670 0.0
C315 C 0.69391 0.52203 0.71351 0.0
C316 C 0.69702 0.50329 0.69030 0.0
C317 C 0.69128 0.47727 0.70639 0.0
C318 C 0.69436 0.45852 0.68317 0.0
C319 C 0.70323 0.46581 0.64388 0.0
C320 C 0.70896 0.49183 0.62778 0.0
C321 C 0.70585 0.51056 0.65099 0.0
C322 C 0.70631 0.44706 0.62066 0.0
C323 C 0.70942 0.42833 0.59742 0.0
H324 H 0.68475 0.47189 0.73548 0.0
H325 H 0.69009 0.43924 0.69507 0.0
H326 H 0.71551 0.49721 0.59869 0.0
H327 H 0.71009 0.52982 0.63908 0.0
C328 C 0.89722 0.35213 0.29285 0.0
C329 C 0.87560 0.35114 0.31450 0.0
C330 C 0.85398 0.35016 0.33611 0.0
C331 C 0.83721 0.32752 0.36348 0.0
C332 C 0.81560 0.32654 0.38511 0.0
C333 C 0.81074 0.34819 0.37931 0.0
C334 C 0.82751 0.37083 0.35194 0.0
C335 C 0.84914 0.37182 0.33035 0.0
C336 C 0.78913 0.34721 0.40094 0.0
C337 C 0.76752 0.34626 0.42253 0.0
H338 H 0.84079 0.31148 0.36774 0.0
H339 H 0.80321 0.30980 0.40540 0.0
H340 H 0.82392 0.38686 0.34767 0.0
H341 H 0.86157 0.38859 0.31009 0.0
C342 C 0.03575 0.11199 0.00720 0.0
C343 C 0.05687 0.16055 0.00977 0.0
H344 H 0.03312 0.11390 0.98157 0.0
H345 H 0.05227 0.11316 0.00947 0.0
N346 N 0.03859 0.13425 0.02777 0.0
H347 H 0.02426 0.13278 0.03570 0.0
H348 H 0.07291 0.16214 0.00186 0.0
H349 H 0.04805 0.16139 0.98823 0.0
H350 H 0.04043 0.13245 0.05107 0.0
C351 C 0.10498 0.03009 0.02822 0.0
C352 C 0.11701 0.99844 0.02744 0.0
H353 H 0.10535 0.02853 0.05454 0.0
H354 H 0.12251 0.04610 0.02063 0.0
N355 N 0.10023 0.00576 0.01119 0.0
H356 H 0.08371 0.99108 0.00800 0.0
H357 H 0.13537 0.01480 0.03005 0.0
H358 H 0.11024 0.99093 0.05164 0.0
H359 H 0.09930 0.00666 0.98743 0.0
C360 C 0.94550 0.95354 0.01007 0.0
C361 C 0.89738 0.92914 0.01746 0.0
H362 H 0.94172 0.93553 0.01218 0.0
H363 H 0.94600 0.95756 0.98427 0.0
N364 N 0.92396 0.95331 0.02760 0.0
H365 H 0.92460 0.95640 0.05108 0.0
H366 H 0.89677 0.92633 0.99129 0.0
H367 H 0.89436 0.91316 0.02944 0.0
H368 H 0.92741 0.96961 0.02654 0.0
