data_{}
_symmetry_space_group_name_H-M    P1
_symmetry_Int_Tables_number       1
_symmetry_cell_setting            triclinic
loop_
_symmetry_equiv_pos_as_xyz
'x, y, z'
_cell_length_a     52.387
_cell_length_b     38.742
_cell_length_c     70.297
_cell_angle_alpha  90.553
_cell_angle_beta   89.994
_cell_angle_gamma  90.025
loop_
_atom_site_label
_atom_site_type_symbol
_atom_site_fract_x
_atom_site_fract_y
_atom_site_fract_z
_atom_type_partial_charge
C0 C 0.01342 0.01444 0.56524 0.0
C1 C 0.00949 0.04605 0.57735 0.0
C2 C 0.02849 0.04715 0.59386 0.0
C3 C 0.03140 0.98497 0.59411 0.0
C4 C 0.01271 0.98200 0.57773 0.0
C5 C 0.02029 0.01619 0.62378 0.0
C6 C 0.00422 0.14079 0.68004 0.0
C7 C 0.00870 0.10580 0.69008 0.0
C8 C 0.99482 0.07601 0.67940 0.0
C9 C 0.00787 0.04466 0.64993 0.0
C10 C 0.99990 0.10760 0.64902 0.0
C11 C 0.01285 0.13786 0.65914 0.0
C12 C 0.01147 0.98713 0.65005 0.0
C13 C 0.00377 0.89204 0.67928 0.0
C14 C 0.01909 0.89561 0.66067 0.0
C15 C 0.00511 0.92659 0.68992 0.0
C16 C 0.99493 0.95574 0.67766 0.0
C17 C 0.00837 0.92384 0.64875 0.0
N18 N 0.01900 0.98597 0.63211 0.0
H19 H 0.03034 0.01598 0.55945 0.0
H20 H 0.99221 0.04616 0.58234 0.0
N21 N 0.01465 0.04654 0.63144 0.0
H22 H 0.01161 0.06649 0.56963 0.0
H23 H 0.02493 0.06710 0.60189 0.0
N24 N 0.00287 0.07519 0.65929 0.0
H25 H 0.04870 0.98522 0.58921 0.0
N26 N 0.02679 0.01613 0.60500 0.0
H27 H 0.02962 0.96511 0.60230 0.0
H28 H 0.98567 0.14487 0.67985 0.0
H29 H 0.02686 0.10097 0.69055 0.0
H30 H 0.04567 0.04951 0.58889 0.0
H31 H 0.99560 0.97886 0.58271 0.0
H32 H 0.01690 0.96187 0.57002 0.0
N33 N 0.00561 0.01610 0.66002 0.0
N34 N 0.00831 0.95625 0.65948 0.0
H35 H 0.99885 0.05419 0.68531 0.0
H36 H 0.97651 0.07946 0.68016 0.0
H37 H 0.98599 0.88729 0.67599 0.0
H38 H 0.98178 0.11264 0.64765 0.0
H39 H 0.00703 0.10500 0.63637 0.0
H40 H 0.00246 0.10724 0.70307 0.0
H41 H 0.00874 0.15908 0.65262 0.0
H42 H 0.03120 0.13480 0.65866 0.0
H43 H 0.03679 0.90065 0.66364 0.0
H44 H 0.97679 0.95249 0.67551 0.0
H45 H 0.99732 0.97765 0.68422 0.0
H46 H 0.01857 0.92633 0.63734 0.0
H47 H 0.99106 0.91804 0.64493 0.0
H48 H 0.01852 0.87395 0.65360 0.0
H49 H 0.99517 0.92518 0.70153 0.0
H50 H 0.02270 0.93138 0.69343 0.0
C51 C 0.01201 0.00655 0.43736 0.0
C52 C 0.00799 0.97493 0.42526 0.0
C53 C 0.02687 0.97386 0.40867 0.0
C54 C 0.02978 0.03603 0.40841 0.0
C55 C 0.01121 0.03898 0.42486 0.0
C56 C 0.01845 0.00480 0.37879 0.0
C57 C 0.00197 0.88018 0.32259 0.0
C58 C 0.00637 0.91518 0.31254 0.0
C59 C 0.99258 0.94495 0.32328 0.0
C60 C 0.00583 0.97632 0.35269 0.0
C61 C 0.99782 0.91337 0.35363 0.0
C62 C 0.01075 0.88312 0.34345 0.0
C63 C 0.00944 0.03385 0.35256 0.0
C64 C 0.00153 0.12894 0.32336 0.0
C65 C 0.01697 0.12538 0.34190 0.0
C66 C 0.00279 0.09439 0.31271 0.0
C67 C 0.99269 0.06523 0.32502 0.0
C68 C 0.00635 0.09714 0.35387 0.0
N69 N 0.01710 0.03502 0.37046 0.0
H70 H 0.02897 0.00503 0.44308 0.0
H71 H 0.99067 0.97480 0.42034 0.0
N72 N 0.01275 0.97445 0.37115 0.0
H73 H 0.01017 0.95450 0.43298 0.0
H74 H 0.02325 0.95390 0.40066 0.0
N75 N 0.00010 0.94579 0.34335 0.0
H76 H 0.04711 0.03581 0.41323 0.0
N77 N 0.02508 0.00488 0.39753 0.0
H78 H 0.02794 0.05589 0.40023 0.0
H79 H 0.98342 0.87608 0.32287 0.0
H80 H 0.02453 0.92003 0.31199 0.0
H81 H 0.04408 0.97151 0.41356 0.0
H82 H 0.99406 0.04211 0.41996 0.0
H83 H 0.01546 0.05912 0.43256 0.0
N84 N 0.00350 0.00488 0.34261 0.0
N85 N 0.00621 0.06473 0.34314 0.0
H86 H 0.99656 0.96678 0.31735 0.0
H87 H 0.97425 0.94149 0.32259 0.0
H88 H 0.98377 0.13366 0.32672 0.0
H89 H 0.97977 0.90832 0.35508 0.0
H90 H 0.00510 0.91598 0.36625 0.0
H91 H 0.00010 0.91373 0.29957 0.0
H92 H 0.00669 0.86190 0.35000 0.0
H93 H 0.02910 0.88620 0.34386 0.0
H94 H 0.03466 0.12036 0.33886 0.0
H95 H 0.97457 0.06845 0.32724 0.0
H96 H 0.99503 0.04332 0.31844 0.0
H97 H 0.01663 0.09466 0.36524 0.0
H98 H 0.98907 0.10292 0.35776 0.0
H99 H 0.01647 0.14704 0.34897 0.0
H100 H 0.99275 0.09578 0.30115 0.0
H101 H 0.02035 0.08962 0.30913 0.0
C102 C 0.01113 0.43873 0.77931 0.0
C103 C 0.06648 0.52274 0.83061 0.0
C104 C 0.01023 0.58588 0.77388 0.0
C105 C 0.96170 0.52003 0.83157 0.0
Ag106 Ag 0.01407 0.51494 0.80260 0.0
N107 N 0.01140 0.46348 0.78820 0.0
N108 N 0.04766 0.52261 0.82220 0.0
N109 N 0.97811 0.52224 0.82118 0.0
N110 N 0.01125 0.56189 0.78295 0.0
C111 C 0.00970 0.58225 0.22331 0.0
C112 C 0.06532 0.49834 0.17214 0.0
C113 C 0.00884 0.43510 0.22873 0.0
C114 C 0.96054 0.50084 0.17093 0.0
Ag115 Ag 0.01278 0.50604 0.20002 0.0
N116 N 0.01002 0.55749 0.21441 0.0
N117 N 0.04646 0.49844 0.18050 0.0
N118 N 0.97690 0.49866 0.18135 0.0
N119 N 0.00989 0.45908 0.21966 0.0
C120 C 0.87790 0.50765 0.12733 0.0
C121 C 0.87264 0.47545 0.11491 0.0
C122 C 0.85459 0.47806 0.09770 0.0
C123 C 0.84907 0.44606 0.08518 0.0
C124 C 0.83093 0.44893 0.06802 0.0
C125 C 0.81834 0.48375 0.06346 0.0
C126 C 0.82393 0.51574 0.07593 0.0
C127 C 0.84204 0.51288 0.09307 0.0
C128 C 0.80053 0.45483 0.03425 0.0
C129 C 0.78455 0.46580 0.01706 0.0
C130 C 0.75532 0.46276 0.01773 0.0
C131 C 0.73926 0.47990 0.00214 0.0
C132 C 0.75240 0.49624 0.98480 0.0
C133 C 0.78172 0.49626 0.98333 0.0
C134 C 0.79781 0.48107 0.99990 0.0
C135 C 0.82713 0.48365 0.99882 0.0
C136 C 0.74219 0.44523 0.03474 0.0
C137 C 0.73619 0.51359 0.96933 0.0
C138 C 0.71008 0.48121 0.00392 0.0
C139 C 0.67523 0.52272 0.00923 0.0
C140 C 0.65766 0.49153 0.00556 0.0
C141 C 0.62856 0.49665 0.00457 0.0
C142 C 0.61709 0.53296 0.00726 0.0
C143 C 0.63468 0.56412 0.01109 0.0
C144 C 0.66378 0.55899 0.01208 0.0
C145 C 0.58800 0.53800 0.00607 0.0
C146 C 0.57056 0.50673 0.00215 0.0
C147 C 0.79507 0.51319 0.96631 0.0
C148 C 0.81112 0.49915 0.93439 0.0
C149 C 0.81999 0.53699 0.93366 0.0
C150 C 0.83885 0.54843 0.91816 0.0
C151 C 0.84883 0.52196 0.90348 0.0
C152 C 0.83989 0.48415 0.90420 0.0
C153 C 0.82101 0.47273 0.91967 0.0
C154 C 0.86788 0.53316 0.88807 0.0
C155 C 0.87790 0.50640 0.87356 0.0
O156 O 0.80081 0.48691 0.04659 0.0
O157 O 0.79367 0.48754 0.95009 0.0
O158 O 0.70374 0.51786 0.00958 0.0
H159 H 0.86844 0.53328 0.12373 0.0
H160 H 0.88205 0.44978 0.11847 0.0
H161 H 0.85839 0.42028 0.08861 0.0
H162 H 0.82684 0.42530 0.05871 0.0
H163 H 0.81465 0.54153 0.07246 0.0
H164 H 0.84615 0.53653 0.10233 0.0
H165 H 0.79118 0.43242 0.04201 0.0
H166 H 0.82071 0.44777 0.02955 0.0
H167 H 0.83298 0.50148 0.98678 0.0
H168 H 0.83567 0.45694 0.99630 0.0
H169 H 0.83437 0.49459 0.01294 0.0
H170 H 0.75583 0.44477 0.04737 0.0
H171 H 0.73692 0.41760 0.03057 0.0
H172 H 0.72414 0.45994 0.03881 0.0
H173 H 0.74928 0.52572 0.95829 0.0
H174 H 0.72384 0.53447 0.97621 0.0
H175 H 0.72339 0.49353 0.96216 0.0
H176 H 0.70096 0.47461 0.98961 0.0
H177 H 0.70318 0.46256 0.01526 0.0
H178 H 0.66620 0.46469 0.00349 0.0
H179 H 0.61551 0.47360 0.00181 0.0
H180 H 0.62617 0.59097 0.01315 0.0
H181 H 0.67686 0.58204 0.01483 0.0
H182 H 0.57939 0.56482 0.00807 0.0
H183 H 0.57922 0.47995 0.00010 0.0
H184 H 0.78526 0.53832 0.96225 0.0
H185 H 0.81590 0.51839 0.97008 0.0
H186 H 0.81273 0.55644 0.94466 0.0
H187 H 0.84550 0.57642 0.91760 0.0
H188 H 0.84732 0.46461 0.89331 0.0
H189 H 0.81449 0.44471 0.92031 0.0
H190 H 0.87457 0.56113 0.88741 0.0
H191 H 0.87116 0.47846 0.87428 0.0
C192 C 0.14696 0.51592 0.87533 0.0
C193 C 0.15218 0.48301 0.88681 0.0
C194 C 0.17023 0.48458 0.90408 0.0
C195 C 0.17571 0.45185 0.91568 0.0
C196 C 0.19386 0.45368 0.93291 0.0
C197 C 0.20649 0.48820 0.93846 0.0
C198 C 0.20094 0.52090 0.92692 0.0
C199 C 0.18283 0.51908 0.90971 0.0
C200 C 0.22427 0.45755 0.96681 0.0
C201 C 0.24026 0.46747 0.98430 0.0
C202 C 0.26949 0.46445 0.98355 0.0
C203 C 0.28556 0.48064 0.99990 0.0
C204 C 0.27244 0.49594 0.01741 0.0
C205 C 0.24312 0.49590 0.01888 0.0
C206 C 0.22701 0.48170 0.00228 0.0
C207 C 0.19770 0.48427 0.00304 0.0
C208 C 0.28260 0.44793 0.96605 0.0
C209 C 0.28867 0.51236 0.03336 0.0
C210 C 0.31475 0.48203 0.99788 0.0
C211 C 0.34964 0.52378 0.99375 0.0
C212 C 0.36718 0.49239 0.99653 0.0
C213 C 0.39628 0.49742 0.99766 0.0
C214 C 0.40779 0.53384 0.99602 0.0
C215 C 0.39024 0.56522 0.99308 0.0
C216 C 0.36113 0.56018 0.99195 0.0
C217 C 0.43689 0.53878 0.99735 0.0
C218 C 0.45429 0.50730 0.00010 0.0
C219 C 0.22979 0.51182 0.03637 0.0
C220 C 0.21372 0.49592 0.06786 0.0
C221 C 0.20489 0.53370 0.06967 0.0
C222 C 0.18605 0.54422 0.08548 0.0
C223 C 0.17603 0.51691 0.09940 0.0
C224 C 0.18493 0.47917 0.09760 0.0
C225 C 0.20380 0.46866 0.08181 0.0
C226 C 0.15700 0.52720 0.11512 0.0
C227 C 0.14695 0.49962 0.12884 0.0
O228 O 0.22402 0.49033 0.95541 0.0
O229 O 0.23116 0.48524 0.05184 0.0
O230 O 0.32112 0.51898 0.99327 0.0
H231 H 0.15645 0.54130 0.87966 0.0
H232 H 0.14274 0.45758 0.88253 0.0
H233 H 0.16637 0.42631 0.91151 0.0
H234 H 0.19792 0.42952 0.94153 0.0
H235 H 0.21024 0.54646 0.93112 0.0
H236 H 0.17874 0.54326 0.90113 0.0
H237 H 0.23359 0.43561 0.95842 0.0
H238 H 0.20408 0.45024 0.97131 0.0
H239 H 0.19187 0.50137 0.01559 0.0
H240 H 0.18912 0.45744 0.00480 0.0
H241 H 0.19047 0.49604 0.98925 0.0
H242 H 0.26895 0.44824 0.95342 0.0
H243 H 0.28784 0.42008 0.96943 0.0
H244 H 0.30067 0.46285 0.96241 0.0
H245 H 0.27559 0.52383 0.04474 0.0
H246 H 0.30104 0.53361 0.02708 0.0
H247 H 0.30144 0.49187 0.03995 0.0
H248 H 0.32386 0.47457 0.01198 0.0
H249 H 0.32163 0.46406 0.98601 0.0
H250 H 0.35860 0.46545 0.99783 0.0
H251 H 0.40931 0.47421 0.99990 0.0
H252 H 0.39878 0.59217 0.99179 0.0
H253 H 0.34808 0.58339 0.98986 0.0
H254 H 0.44553 0.56569 0.99613 0.0
H255 H 0.44560 0.48043 0.00158 0.0
H256 H 0.23962 0.53668 0.04115 0.0
H257 H 0.20896 0.51727 0.03275 0.0
H258 H 0.21218 0.55377 0.05924 0.0
H259 H 0.17943 0.57216 0.08685 0.0
H260 H 0.17748 0.45900 0.10792 0.0
H261 H 0.21029 0.44069 0.08037 0.0
H262 H 0.15034 0.55511 0.11657 0.0
H263 H 0.15365 0.47174 0.12733 0.0
C264 C 0.93698 0.52343 0.83556 0.0
C265 C 0.89765 0.51558 0.85404 0.0
H266 H 0.92543 0.52244 0.82444 0.0
H267 H 0.93965 0.54802 0.83899 0.0
N268 N 0.92482 0.50549 0.85178 0.0
H269 H 0.92653 0.48270 0.85307 0.0
H270 H 0.89614 0.54094 0.85302 0.0
H271 H 0.88748 0.50498 0.84364 0.0
H272 H 0.93528 0.50556 0.86181 0.0
C273 C 0.94261 0.49525 0.15885 0.0
C274 C 0.90035 0.49695 0.14378 0.0
H275 H 0.93949 0.47011 0.15948 0.0
H276 H 0.95261 0.49983 0.14718 0.0
N277 N 0.91780 0.51361 0.15775 0.0
H278 H 0.90930 0.51918 0.16835 0.0
H279 H 0.90988 0.49164 0.13196 0.0
H280 H 0.89404 0.47489 0.14902 0.0
H281 H 0.92032 0.53639 0.15757 0.0
C282 C 0.09016 0.51040 0.83467 0.0
C283 C 0.12837 0.51681 0.85463 0.0
H284 H 0.10116 0.51984 0.82453 0.0
H285 H 0.09068 0.48489 0.83367 0.0
N286 N 0.10028 0.52135 0.85351 0.0
H287 H 0.09578 0.54168 0.85858 0.0
H288 H 0.13301 0.49389 0.84937 0.0
H289 H 0.13683 0.53458 0.84679 0.0
H290 H 0.09021 0.51359 0.86278 0.0
C291 C 0.08141 0.51651 0.15904 0.0
C292 C 0.12381 0.51559 0.14414 0.0
H293 H 0.08421 0.54172 0.15986 0.0
H294 H 0.07157 0.51158 0.14729 0.0
N295 N 0.10645 0.49870 0.15791 0.0
H296 H 0.11493 0.49343 0.16851 0.0
H297 H 0.11431 0.52055 0.13232 0.0
H298 H 0.12980 0.53784 0.14957 0.0
H299 H 0.10421 0.47586 0.15756 0.0
C300 C 0.48479 0.50570 0.00207 0.0
C301 C 0.49679 0.53073 0.98816 0.0
C302 C 0.52417 0.52004 0.98334 0.0
C303 C 0.54026 0.51670 0.00123 0.0
C304 C 0.52845 0.49305 0.01559 0.0
C305 C 0.50069 0.50289 0.01996 0.0
H306 H 0.48558 0.48302 0.99591 0.0
H307 H 0.48670 0.53127 0.97660 0.0
H308 H 0.49682 0.55376 0.99370 0.0
H309 H 0.53178 0.53716 0.97509 0.0
H310 H 0.52397 0.49817 0.97654 0.0
H311 H 0.54082 0.53973 0.00718 0.0
H312 H 0.52902 0.46955 0.01076 0.0
H313 H 0.53834 0.49402 0.02724 0.0
H314 H 0.50039 0.52480 0.02673 0.0
H315 H 0.49324 0.48559 0.02817 0.0
C316 C 0.00941 0.23953 0.71347 0.0
C317 C 0.01253 0.20528 0.72416 0.0
C318 C 0.01191 0.17076 0.71312 0.0
C319 C 0.00819 0.17050 0.69138 0.0
C320 C 0.00509 0.20475 0.68070 0.0
C321 C 0.00570 0.23925 0.69174 0.0
C322 C 0.00995 0.27411 0.72444 0.0
C323 C 0.01047 0.30880 0.73530 0.0
C324 C 0.01093 0.34361 0.74605 0.0
C325 C 0.01449 0.34461 0.76779 0.0
C326 C 0.01488 0.37950 0.77849 0.0
C327 C 0.01174 0.41337 0.76743 0.0
C328 C 0.00818 0.41236 0.74569 0.0
C329 C 0.00778 0.37748 0.73501 0.0
H330 H 0.01527 0.20548 0.74025 0.0
H331 H 0.01421 0.14540 0.72103 0.0
H332 H 0.00235 0.20457 0.66461 0.0
H333 H 0.00339 0.26461 0.68383 0.0
H334 H 0.01682 0.31954 0.77597 0.0
H335 H 0.01755 0.38025 0.79458 0.0
H336 H 0.00585 0.43742 0.73750 0.0
H337 H 0.00518 0.37673 0.71891 0.0
C338 C 0.00857 0.79319 0.71177 0.0
C339 C 0.98702 0.80100 0.69755 0.0
C340 C 0.98674 0.83557 0.68691 0.0
C341 C 0.00801 0.86231 0.69049 0.0
C342 C 0.02956 0.85447 0.70470 0.0
C343 C 0.02983 0.81993 0.71534 0.0
C344 C 0.00891 0.75872 0.72248 0.0
C345 C 0.00940 0.72431 0.73325 0.0
C346 C 0.01003 0.68998 0.74410 0.0
C347 C 0.98892 0.66288 0.74087 0.0
C348 C 0.98961 0.62861 0.75179 0.0
C349 C 0.01140 0.62146 0.76593 0.0
C350 C 0.03250 0.64857 0.76915 0.0
C351 C 0.03181 0.68283 0.75824 0.0
H352 H 0.97126 0.78122 0.69491 0.0
H353 H 0.97079 0.84137 0.67639 0.0
H354 H 0.04531 0.87424 0.70734 0.0
H355 H 0.04578 0.81413 0.72586 0.0
H356 H 0.97280 0.66818 0.73041 0.0
H357 H 0.97401 0.60851 0.74938 0.0
H358 H 0.04863 0.64329 0.77961 0.0
H359 H 0.04744 0.70289 0.76060 0.0
C360 C 0.00638 0.78099 0.28956 0.0
C361 C 0.98109 0.79526 0.29758 0.0
C362 C 0.98078 0.82996 0.30846 0.0
C363 C 0.00574 0.85038 0.31131 0.0
C364 C 0.03100 0.83611 0.30329 0.0
C365 C 0.03132 0.80143 0.29241 0.0
C366 C 0.00681 0.74629 0.27871 0.0
C367 C 0.00743 0.71161 0.26784 0.0
C368 C 0.00822 0.67693 0.25696 0.0
C369 C 0.98357 0.65590 0.25400 0.0
C370 C 0.98448 0.62119 0.24315 0.0
C371 C 0.01003 0.60753 0.23527 0.0
C372 C 0.03467 0.62858 0.23824 0.0
C373 C 0.03376 0.66327 0.24909 0.0
H374 H 0.96262 0.78013 0.29547 0.0
H375 H 0.96207 0.84052 0.31441 0.0
H376 H 0.04948 0.85123 0.30539 0.0
H377 H 0.05003 0.79086 0.28647 0.0
H378 H 0.96466 0.66601 0.25983 0.0
H379 H 0.96623 0.60563 0.24092 0.0
H380 H 0.05358 0.61848 0.23241 0.0
H381 H 0.05200 0.67887 0.25127 0.0
C382 C 0.00659 0.22706 0.29014 0.0
C383 C 0.99452 0.19467 0.28099 0.0
C384 C 0.99412 0.16040 0.29191 0.0
C385 C 0.00577 0.15853 0.31199 0.0
C386 C 0.01783 0.19092 0.32114 0.0
C387 C 0.01823 0.22517 0.31021 0.0
C388 C 0.00709 0.26136 0.27927 0.0
C389 C 0.00769 0.29577 0.26850 0.0
C390 C 0.00838 0.33027 0.25782 0.0
C391 C 0.99698 0.33281 0.23769 0.0
C392 C 0.99778 0.36737 0.22706 0.0
C393 C 0.00996 0.39937 0.23656 0.0
C394 C 0.02135 0.39681 0.25668 0.0
C395 C 0.02056 0.36226 0.26731 0.0
H396 H 0.98590 0.19605 0.26612 0.0
H397 H 0.98519 0.13642 0.28514 0.0
H398 H 0.02644 0.18955 0.33600 0.0
H399 H 0.02716 0.24915 0.31698 0.0
H400 H 0.98797 0.30913 0.23067 0.0
H401 H 0.98932 0.36928 0.21217 0.0
H402 H 0.03037 0.42049 0.26372 0.0
H403 H 0.02897 0.36037 0.28222 0.0
H404 H 0.98666 0.99367 0.45096 0.0
H405 H 0.02596 0.98808 0.47564 0.0
H406 H 0.98684 0.03794 0.49173 0.0
H407 H 0.98399 0.98996 0.48581 0.0
H408 H 0.02352 0.02731 0.55167 0.0
H409 H 0.98422 0.03290 0.52699 0.0
H410 H 0.02334 0.98304 0.51090 0.0
H411 H 0.02619 0.03102 0.51682 0.0
C412 C 0.99881 0.00747 0.45633 0.0
C413 C 0.01470 0.00803 0.47441 0.0
C414 C 0.99702 0.00965 0.49212 0.0
C415 C 0.01137 0.01351 0.54630 0.0
C416 C 0.99548 0.01295 0.52822 0.0
C417 C 0.01316 0.01133 0.51051 0.0
