data_{}
_symmetry_space_group_name_H-M    P1
_symmetry_Int_Tables_number       1
_symmetry_cell_setting            triclinic
loop_
_symmetry_equiv_pos_as_xyz
'x, y, z'
_cell_length_a     70.172
_cell_length_b     69.979
_cell_length_c     34.520
_cell_angle_alpha  90.179
_cell_angle_beta   90.937
_cell_angle_gamma  121.129
loop_
_atom_site_label
_atom_site_type_symbol
_atom_site_fract_x
_atom_site_fract_y
_atom_site_fract_z
_atom_type_partial_charge
C0 C 0.00567 0.02020 0.02656 0.0
C1 C 0.98346 0.01265 0.02607 0.0
C2 C 0.96524 0.98969 0.02663 0.0
C3 C 0.94943 0.96951 0.02580 0.0
C4 C 0.93302 0.94759 0.02625 0.0
C5 C 0.93645 0.93042 0.01822 0.0
C6 C 0.91777 0.90805 0.01670 0.0
C7 C 0.89776 0.90530 0.02180 0.0
C8 C 0.89505 0.92207 0.02914 0.0
C9 C 0.91309 0.94337 0.03083 0.0
C10 C 0.97649 0.02866 0.02482 0.0
C11 C 0.99277 0.05257 0.02442 0.0
C12 C 0.98662 0.06847 0.02291 0.0
C13 C 0.98223 0.08252 0.02152 0.0
C14 C 0.97882 0.10095 0.02420 0.0
C15 C 0.95629 0.09387 0.01673 0.0
C16 C 0.95057 0.11186 0.01825 0.0
C17 C 0.97013 0.13510 0.02716 0.0
C18 C 0.99184 0.13941 0.03222 0.0
C19 C 0.99538 0.12197 0.03256 0.0
C20 C 0.01508 0.05847 0.02589 0.0
C21 C 0.02185 0.04189 0.02712 0.0
C22 C 0.04379 0.04863 0.02677 0.0
C23 C 0.06326 0.05471 0.02709 0.0
C24 C 0.08693 0.06121 0.02661 0.0
C25 C 0.10293 0.08176 0.03444 0.0
C26 C 0.12516 0.08846 0.03147 0.0
C27 C 0.13028 0.07170 0.02654 0.0
C28 C 0.11275 0.05022 0.02017 0.0
C29 C 0.09195 0.04432 0.02215 0.0
H30 H 0.00994 0.00963 0.02644 0.0
H31 H 0.95066 0.93323 0.01383 0.0
H32 H 0.91958 0.89598 0.01231 0.0
H33 H 0.88087 0.91954 0.03318 0.0
H34 H 0.91079 0.95513 0.03542 0.0
H35 H 0.96135 0.02371 0.02429 0.0
H36 H 0.94558 0.07901 0.01125 0.0
H37 H 0.93617 0.10894 0.01403 0.0
H38 H 0.00366 0.15397 0.03530 0.0
H39 H 0.00951 0.12468 0.03874 0.0
H40 H 0.02608 0.07353 0.02605 0.0
H41 H 0.09919 0.09215 0.04220 0.0
H42 H 0.13626 0.10344 0.03270 0.0
H43 H 0.11604 0.03930 0.01409 0.0
H44 H 0.08069 0.02937 0.02066 0.0
C45 C 0.86696 0.38840 0.77384 0.0
C46 C 0.85093 0.36778 0.79747 0.0
C47 C 0.85987 0.36111 0.83268 0.0
C48 C 0.84405 0.34048 0.85653 0.0
C49 C 0.85318 0.33392 0.89166 0.0
C50 C 0.87809 0.34797 0.90277 0.0
C51 C 0.89387 0.36862 0.87901 0.0
C52 C 0.88475 0.37517 0.84394 0.0
C53 C 0.86903 0.32344 0.96077 0.0
C54 C 0.88179 0.32236 0.99637 0.0
C55 C 0.89257 0.30804 0.99492 0.0
C56 C 0.90886 0.31044 0.02758 0.0
C57 C 0.91221 0.32494 0.06368 0.0
C58 C 0.89969 0.33758 0.06660 0.0
C59 C 0.88449 0.33631 0.03286 0.0
C60 C 0.87343 0.35040 0.03431 0.0
C61 C 0.88853 0.29286 0.95944 0.0
C62 C 0.92869 0.32739 0.09609 0.0
C63 C 0.92208 0.29861 0.02410 0.0
C64 C 0.96037 0.30702 0.01550 0.0
C65 C 0.95027 0.28182 0.02141 0.0
C66 C 0.96557 0.27212 0.02375 0.0
C67 C 0.99092 0.28764 0.02018 0.0
C68 C 0.00010 0.31282 0.01394 0.0
C69 C 0.98570 0.32252 0.01160 0.0
C70 C 0.00616 0.27789 0.02293 0.0
C71 C 0.99596 0.25271 0.02935 0.0
C72 C 0.90329 0.35252 0.10209 0.0
C73 C 0.88813 0.35091 0.16630 0.0
C74 C 0.90562 0.37600 0.16970 0.0
C75 C 0.90380 0.39025 0.20179 0.0
C76 C 0.88445 0.37938 0.23030 0.0
C77 C 0.86701 0.35428 0.22691 0.0
C78 C 0.86885 0.34003 0.19488 0.0
C79 C 0.88242 0.39359 0.26219 0.0
C80 C 0.86290 0.38258 0.29032 0.0
O81 O 0.88712 0.34184 0.93732 0.0
O82 O 0.88925 0.33717 0.13378 0.0
O83 O 0.94548 0.31660 0.01448 0.0
H84 H 0.88537 0.39865 0.78251 0.0
H85 H 0.83251 0.35748 0.78889 0.0
H86 H 0.82562 0.33008 0.84821 0.0
H87 H 0.84151 0.31868 0.90941 0.0
H88 H 0.91229 0.37904 0.88742 0.0
H89 H 0.89643 0.39043 0.82628 0.0
H90 H 0.86052 0.30696 0.94386 0.0
H91 H 0.85638 0.32808 0.96993 0.0
H92 H 0.88080 0.36271 0.05973 0.0
H93 H 0.85472 0.33902 0.03805 0.0
H94 H 0.87667 0.35996 0.00612 0.0
H95 H 0.88262 0.29875 0.93366 0.0
H96 H 0.87519 0.27498 0.96652 0.0
H97 H 0.90457 0.29342 0.95195 0.0
H98 H 0.92979 0.33964 0.11916 0.0
H99 H 0.94580 0.33393 0.08319 0.0
H100 H 0.92277 0.31044 0.10969 0.0
H101 H 0.92206 0.29067 0.05290 0.0
H102 H 0.91468 0.28538 0.00010 0.0
H103 H 0.93150 0.27038 0.02422 0.0
H104 H 0.95813 0.25348 0.02822 0.0
H105 H 0.01977 0.32429 0.01115 0.0
H106 H 0.99313 0.34118 0.00715 0.0
H107 H 0.02495 0.28929 0.02027 0.0
H108 H 0.97717 0.24135 0.03198 0.0
H109 H 0.92157 0.36233 0.11167 0.0
H110 H 0.89738 0.36451 0.09462 0.0
H111 H 0.91981 0.38401 0.14833 0.0
H112 H 0.91671 0.40885 0.20436 0.0
H113 H 0.85270 0.34628 0.24806 0.0
H114 H 0.85587 0.32147 0.19215 0.0
H115 H 0.89529 0.41218 0.26495 0.0
H116 H 0.85007 0.36398 0.28745 0.0
C117 C 0.49425 0.18604 0.29020 0.0
C118 C 0.48894 0.16538 0.26565 0.0
C119 C 0.47300 0.15865 0.23030 0.0
C120 C 0.46746 0.13798 0.20552 0.0
C121 C 0.45144 0.13135 0.17025 0.0
C122 C 0.44098 0.14537 0.15991 0.0
C123 C 0.44657 0.16606 0.18459 0.0
C124 C 0.46256 0.17268 0.21981 0.0
C125 C 0.42454 0.12073 0.10092 0.0
C126 C 0.41054 0.11958 0.06541 0.0
C127 C 0.38501 0.10526 0.06646 0.0
C128 C 0.37107 0.10759 0.03405 0.0
C129 C 0.38255 0.12204 0.99852 0.0
C130 C 0.40809 0.13468 0.99591 0.0
C131 C 0.42210 0.13347 0.02946 0.0
C132 C 0.44769 0.14758 0.02840 0.0
C133 C 0.37351 0.09014 0.10135 0.0
C134 C 0.36847 0.12442 0.96636 0.0
C135 C 0.34567 0.09576 0.03725 0.0
C136 C 0.31606 0.10415 0.04657 0.0
C137 C 0.30016 0.07895 0.03963 0.0
C138 C 0.27486 0.06923 0.03710 0.0
C139 C 0.26550 0.08474 0.04150 0.0
C140 C 0.28142 0.10994 0.04876 0.0
C141 C 0.30672 0.11965 0.05129 0.0
C142 C 0.24021 0.07498 0.03856 0.0
C143 C 0.22442 0.04978 0.03112 0.0
C144 C 0.41976 0.14956 0.96101 0.0
C145 C 0.43306 0.14785 0.89657 0.0
C146 C 0.44141 0.17293 0.89427 0.0
C147 C 0.45782 0.18714 0.86267 0.0
C148 C 0.46587 0.17623 0.83355 0.0
C149 C 0.45745 0.15113 0.83585 0.0
C150 C 0.44102 0.13693 0.86739 0.0
C151 C 0.48243 0.19038 0.80215 0.0
C152 C 0.49051 0.17933 0.77342 0.0
O153 O 0.42550 0.13917 0.12524 0.0
O154 O 0.41788 0.13416 0.92861 0.0
O155 O 0.34084 0.11375 0.04777 0.0
H156 H 0.48638 0.19627 0.28210 0.0
H157 H 0.49677 0.15511 0.27366 0.0
H158 H 0.47520 0.12760 0.21327 0.0
H159 H 0.44734 0.11608 0.15182 0.0
H160 H 0.43887 0.17646 0.17676 0.0
H161 H 0.46668 0.18796 0.23814 0.0
H162 H 0.41612 0.10428 0.11715 0.0
H163 H 0.44194 0.12537 0.09179 0.0
H164 H 0.45292 0.15984 0.00350 0.0
H165 H 0.45466 0.13620 0.02404 0.0
H166 H 0.45440 0.15719 0.05697 0.0
H167 H 0.38559 0.09608 0.12728 0.0
H168 H 0.36839 0.07224 0.09348 0.0
H169 H 0.35808 0.09070 0.10903 0.0
H170 H 0.37993 0.13663 0.94375 0.0
H171 H 0.35815 0.13097 0.97968 0.0
H172 H 0.35687 0.10744 0.95209 0.0
H173 H 0.33739 0.08777 0.00816 0.0
H174 H 0.33950 0.08256 0.06073 0.0
H175 H 0.30713 0.06751 0.03621 0.0
H176 H 0.26305 0.05057 0.03187 0.0
H177 H 0.27448 0.12140 0.05217 0.0
H178 H 0.31855 0.13833 0.05650 0.0
H179 H 0.23318 0.08638 0.04183 0.0
H180 H 0.23149 0.03843 0.02788 0.0
H181 H 0.41157 0.15934 0.95197 0.0
H182 H 0.43807 0.16157 0.96885 0.0
H183 H 0.43557 0.18098 0.91608 0.0
H184 H 0.46408 0.20573 0.86091 0.0
H185 H 0.46344 0.14310 0.81426 0.0
H186 H 0.43488 0.11838 0.86930 0.0
H187 H 0.48873 0.20897 0.80021 0.0
H188 H 0.48418 0.16074 0.77547 0.0
C189 C 0.64312 0.53849 0.76071 0.0
C190 C 0.66371 0.54377 0.78569 0.0
C191 C 0.67040 0.55969 0.82088 0.0
C192 C 0.69099 0.56520 0.84608 0.0
C193 C 0.69758 0.58120 0.88118 0.0
C194 C 0.68358 0.59168 0.89091 0.0
C195 C 0.66297 0.58611 0.86580 0.0
C196 C 0.65640 0.57014 0.83076 0.0
C197 C 0.70811 0.60807 0.95020 0.0
C198 C 0.70923 0.62205 0.98543 0.0
C199 C 0.72352 0.64765 0.98420 0.0
C200 C 0.72117 0.66158 0.01624 0.0
C201 C 0.70673 0.65001 0.05164 0.0
C202 C 0.69412 0.62440 0.05447 0.0
C203 C 0.69535 0.61040 0.02126 0.0
C204 C 0.68128 0.58474 0.02250 0.0
C205 C 0.73863 0.65923 0.94946 0.0
C206 C 0.70433 0.66407 0.08343 0.0
C207 C 0.73298 0.68705 0.01280 0.0
C208 C 0.72461 0.71676 0.00261 0.0
C209 C 0.74975 0.73268 0.00987 0.0
C210 C 0.75944 0.75805 0.01211 0.0
C211 C 0.74398 0.76744 0.00709 0.0
C212 C 0.71885 0.75149 0.99990 0.0
C213 C 0.70916 0.72613 0.99727 0.0
C214 C 0.75371 0.79280 0.00974 0.0
C215 C 0.77884 0.80862 0.01750 0.0
C216 C 0.67925 0.61263 0.08923 0.0
C217 C 0.68090 0.59920 0.15400 0.0
C218 C 0.65589 0.59082 0.15582 0.0
C219 C 0.64169 0.57431 0.18740 0.0
C220 C 0.65255 0.56620 0.21698 0.0
C221 C 0.67758 0.57464 0.21517 0.0
C222 C 0.69177 0.59116 0.18365 0.0
C223 C 0.63840 0.54954 0.24836 0.0
C224 C 0.64940 0.54139 0.27757 0.0
O225 O 0.68974 0.60715 0.92541 0.0
O226 O 0.69458 0.61447 0.12200 0.0
O227 O 0.71504 0.69191 0.00170 0.0
H228 H 0.63291 0.54636 0.76836 0.0
H229 H 0.67396 0.53593 0.77813 0.0
H230 H 0.70135 0.55745 0.83877 0.0
H231 H 0.71279 0.58529 0.89992 0.0
H232 H 0.65259 0.59383 0.87319 0.0
H233 H 0.64116 0.56604 0.81211 0.0
H234 H 0.72453 0.61654 0.93422 0.0
H235 H 0.70348 0.59060 0.95958 0.0
H236 H 0.66903 0.57946 0.04719 0.0
H237 H 0.69262 0.57774 0.02732 0.0
H238 H 0.67171 0.57806 0.99383 0.0
H239 H 0.73273 0.64717 0.92364 0.0
H240 H 0.75648 0.66435 0.95770 0.0
H241 H 0.73808 0.67472 0.94143 0.0
H242 H 0.69214 0.65255 0.10596 0.0
H243 H 0.69781 0.67444 0.06970 0.0
H244 H 0.72125 0.67568 0.09789 0.0
H245 H 0.74092 0.69530 0.04192 0.0
H246 H 0.74616 0.69327 0.98954 0.0
H247 H 0.76115 0.72569 0.01375 0.0
H248 H 0.77804 0.76988 0.01758 0.0
H249 H 0.70742 0.75846 0.99564 0.0
H250 H 0.69054 0.71427 0.99182 0.0
H251 H 0.74235 0.79985 0.00601 0.0
H252 H 0.79016 0.80152 0.02120 0.0
H253 H 0.66949 0.62083 0.09783 0.0
H254 H 0.66727 0.59429 0.08147 0.0
H255 H 0.64788 0.59671 0.13367 0.0
H256 H 0.62315 0.56804 0.18879 0.0
H257 H 0.68557 0.56860 0.23710 0.0
H258 H 0.71027 0.59733 0.18209 0.0
H259 H 0.61986 0.54322 0.24995 0.0
H260 H 0.66794 0.54774 0.27587 0.0
C261 C 0.71155 0.41351 0.50298 0.0
Fe262 Fe 0.67266 0.37105 0.52747 0.0
N263 N 0.65830 0.34258 0.56301 0.0
C264 C 0.71429 0.44107 0.45730 0.0
C265 C 0.66065 0.32567 0.55048 0.0
C266 C 0.68168 0.40477 0.46323 0.0
C267 C 0.69273 0.42530 0.44471 0.0
H268 H 0.70018 0.36763 0.59610 0.0
C269 C 0.72439 0.43450 0.48719 0.0
C270 C 0.64562 0.33929 0.59268 0.0
C271 C 0.63325 0.31890 0.61128 0.0
C272 C 0.64925 0.30453 0.56620 0.0
H273 H 0.75284 0.42973 0.53251 0.0
C274 C 0.63423 0.30069 0.59746 0.0
N275 N 0.66017 0.38869 0.55700 0.0
H276 H 0.62556 0.28658 0.60799 0.0
H277 H 0.64482 0.35136 0.60197 0.0
H278 H 0.65116 0.29313 0.55691 0.0
H279 H 0.76465 0.41377 0.58222 0.0
H280 H 0.70398 0.31492 0.46597 0.0
H281 H 0.69802 0.36872 0.45594 0.0
H282 H 0.67779 0.30309 0.51776 0.0
H283 H 0.72192 0.45529 0.44683 0.0
H284 H 0.66726 0.39436 0.45478 0.0
H285 H 0.73904 0.44409 0.49556 0.0
C286 C 0.62865 0.36609 0.51471 0.0
C287 C 0.59607 0.33805 0.47855 0.0
H288 H 0.63889 0.42499 0.58941 0.0
C289 C 0.64002 0.38435 0.54441 0.0
C290 C 0.63197 0.34194 0.47466 0.0
C291 C 0.60972 0.33122 0.46241 0.0
H292 H 0.68470 0.40700 0.59214 0.0
C293 C 0.60631 0.35691 0.50519 0.0
C294 C 0.67120 0.40475 0.58257 0.0
C295 C 0.66401 0.41867 0.59643 0.0
C296 C 0.63095 0.39695 0.55565 0.0
H297 H 0.61699 0.39360 0.54643 0.0
C298 C 0.64386 0.41552 0.58214 0.0
N299 N 0.68148 0.35011 0.49861 0.0
H300 H 0.58094 0.33076 0.47238 0.0
H301 H 0.64096 0.33724 0.46387 0.0
H302 H 0.59812 0.36266 0.51561 0.0
N303 N 0.69028 0.39917 0.49174 0.0
C304 C 0.67503 0.33055 0.51607 0.0
N305 N 0.64105 0.35821 0.50035 0.0
C306 C 0.72005 0.40614 0.53614 0.0
C307 C 0.69440 0.35558 0.46864 0.0
C308 C 0.70307 0.34300 0.45451 0.0
C309 C 0.68249 0.31651 0.50512 0.0
C310 C 0.73317 0.38922 0.59545 0.0
C311 C 0.71109 0.37998 0.58300 0.0
C312 C 0.69784 0.32335 0.47345 0.0
C313 C 0.74257 0.41693 0.54545 0.0
C314 C 0.74965 0.40765 0.57589 0.0
N315 N 0.70468 0.38755 0.55409 0.0
H316 H 0.84286 0.37423 0.70869 0.0
H317 H 0.74275 0.36115 0.60062 0.0
H318 H 0.74571 0.36742 0.67242 0.0
H319 H 0.77579 0.36550 0.63669 0.0
H320 H 0.77958 0.37193 0.70994 0.0
H321 H 0.80938 0.36993 0.67338 0.0
H322 H 0.81369 0.37628 0.74554 0.0
H323 H 0.85721 0.40383 0.70155 0.0
H324 H 0.75711 0.39075 0.59348 0.0
H325 H 0.76007 0.39701 0.66528 0.0
H326 H 0.79015 0.39510 0.62955 0.0
H327 H 0.79394 0.40152 0.70279 0.0
H328 H 0.82374 0.39953 0.66623 0.0
H329 H 0.82805 0.40588 0.73840 0.0
C330 C 0.84655 0.39028 0.72123 0.0
C331 C 0.74578 0.37711 0.61244 0.0
C332 C 0.75676 0.38101 0.65312 0.0
C333 C 0.77910 0.38150 0.64883 0.0
C334 C 0.79055 0.38551 0.69055 0.0
C335 C 0.81287 0.38595 0.68570 0.0
C336 C 0.82456 0.38986 0.72607 0.0
H337 H 0.50130 0.20435 0.35412 0.0
H338 H 0.58371 0.31231 0.45464 0.0
H339 H 0.59580 0.28564 0.43607 0.0
H340 H 0.55660 0.27654 0.42137 0.0
H341 H 0.56812 0.24879 0.40184 0.0
H342 H 0.52903 0.24017 0.38755 0.0
H343 H 0.53978 0.21242 0.36786 0.0
H344 H 0.50994 0.21762 0.30803 0.0
H345 H 0.59235 0.32558 0.40856 0.0
H346 H 0.60444 0.29891 0.38999 0.0
H347 H 0.56524 0.28981 0.37529 0.0
H348 H 0.57676 0.26206 0.35576 0.0
H349 H 0.53767 0.25344 0.34146 0.0
H350 H 0.54842 0.22569 0.32178 0.0
C351 C 0.51270 0.20794 0.33006 0.0
C352 C 0.59565 0.31662 0.43125 0.0
C353 C 0.59272 0.29491 0.41367 0.0
C354 C 0.56831 0.28054 0.39770 0.0
C355 C 0.56510 0.25814 0.37952 0.0
C356 C 0.54060 0.24398 0.36369 0.0
C357 C 0.53685 0.22188 0.34564 0.0
H358 H 0.52530 0.19067 0.73425 0.0
H359 H 0.61763 0.28781 0.62978 0.0
H360 H 0.57818 0.27640 0.61403 0.0
H361 H 0.58694 0.25570 0.66415 0.0
H362 H 0.54643 0.24342 0.64912 0.0
H363 H 0.55573 0.22305 0.69909 0.0
H364 H 0.51562 0.21047 0.68505 0.0
H365 H 0.52649 0.20934 0.77126 0.0
H366 H 0.61882 0.30647 0.66679 0.0
H367 H 0.57936 0.29507 0.65105 0.0
H368 H 0.58813 0.27436 0.70117 0.0
H369 H 0.54762 0.26208 0.68613 0.0
H370 H 0.55692 0.24172 0.73610 0.0
H371 H 0.51681 0.22914 0.72207 0.0
C372 C 0.51847 0.20092 0.74366 0.0
C373 C 0.61142 0.29869 0.63850 0.0
C374 C 0.58585 0.28445 0.64205 0.0
C375 C 0.58046 0.26631 0.67316 0.0
C376 C 0.55418 0.25155 0.67705 0.0
C377 C 0.54909 0.23350 0.70828 0.0
C378 C 0.52345 0.21870 0.71286 0.0
H379 H 0.62391 0.50201 0.32437 0.0
H380 H 0.65987 0.42948 0.42202 0.0
H381 H 0.67794 0.44834 0.36033 0.0
H382 H 0.64811 0.45352 0.38945 0.0
H383 H 0.66604 0.47311 0.32647 0.0
H384 H 0.63616 0.47796 0.35632 0.0
H385 H 0.65344 0.49753 0.29424 0.0
H386 H 0.64482 0.52575 0.35159 0.0
H387 H 0.68078 0.45321 0.44924 0.0
H388 H 0.69884 0.47207 0.38755 0.0
H389 H 0.66902 0.47725 0.41667 0.0
H390 H 0.68694 0.49685 0.35369 0.0
H391 H 0.65707 0.50169 0.38354 0.0
H392 H 0.67435 0.52126 0.32146 0.0
C393 C 0.64116 0.51620 0.32434 0.0
C394 C 0.67735 0.44318 0.42265 0.0
C395 C 0.68145 0.45816 0.38722 0.0
C396 C 0.66550 0.46742 0.38978 0.0
C397 C 0.66958 0.48288 0.35344 0.0
C398 C 0.65349 0.49199 0.35649 0.0
C399 C 0.65703 0.50723 0.32129 0.0
H400 H 0.65241 0.51550 0.75490 0.0
H401 H 0.67171 0.43036 0.65939 0.0
H402 H 0.63437 0.42654 0.65167 0.0
H403 H 0.66513 0.45843 0.69085 0.0
H404 H 0.62733 0.45526 0.68384 0.0
H405 H 0.65842 0.48696 0.72284 0.0
H406 H 0.62141 0.48439 0.71657 0.0
H407 H 0.66161 0.53220 0.71217 0.0
H408 H 0.68091 0.44706 0.61666 0.0
H409 H 0.64357 0.44324 0.60894 0.0
H410 H 0.67433 0.47512 0.64813 0.0
H411 H 0.63653 0.47196 0.64111 0.0
H412 H 0.66763 0.50365 0.68011 0.0
H413 H 0.63061 0.50108 0.67384 0.0
C414 C 0.64703 0.51905 0.72716 0.0
C415 C 0.66647 0.43335 0.63101 0.0
C416 C 0.64890 0.44002 0.63706 0.0
C417 C 0.65981 0.46164 0.66274 0.0
C418 C 0.64187 0.46867 0.66915 0.0
C419 C 0.65308 0.49032 0.69489 0.0
C420 C 0.63595 0.49771 0.70178 0.0
H421 H 0.85457 0.39583 0.36432 0.0
H422 H 0.74835 0.36554 0.46453 0.0
H423 H 0.75461 0.38164 0.39808 0.0
H424 H 0.78343 0.37563 0.43108 0.0
H425 H 0.79059 0.39210 0.36330 0.0
H426 H 0.81909 0.38588 0.39707 0.0
H427 H 0.82673 0.40215 0.33028 0.0
H428 H 0.84146 0.36825 0.34354 0.0
H429 H 0.73524 0.33796 0.44375 0.0
H430 H 0.74150 0.35407 0.37730 0.0
H431 H 0.77032 0.34805 0.41030 0.0
H432 H 0.77748 0.36452 0.34252 0.0
H433 H 0.80598 0.35831 0.37629 0.0
H434 H 0.81362 0.37457 0.30950 0.0
C435 C 0.84522 0.38539 0.33903 0.0
C436 C 0.73830 0.35490 0.43991 0.0
C437 C 0.75126 0.36461 0.40224 0.0
C438 C 0.77367 0.36507 0.40617 0.0
C439 C 0.78715 0.37505 0.36753 0.0
C440 C 0.80952 0.37538 0.37198 0.0
C441 C 0.82318 0.38507 0.33460 0.0
C442 C 0.96189 0.17904 0.02710 0.0
C443 C 0.97756 0.16974 0.02769 0.0
C444 C 0.00297 0.18586 0.02950 0.0
C445 C 0.01271 0.21126 0.03074 0.0
C446 C 0.99704 0.22055 0.03015 0.0
C447 C 0.97163 0.20444 0.02834 0.0
H448 H 0.94308 0.16711 0.02576 0.0
H449 H 0.01457 0.17898 0.02994 0.0
H450 H 0.03152 0.22318 0.03208 0.0
H451 H 0.96003 0.21132 0.02790 0.0
C452 C 0.14946 0.04206 0.02623 0.0
C453 C 0.15827 0.06730 0.02729 0.0
C454 C 0.18353 0.08418 0.02891 0.0
C455 C 0.19998 0.07582 0.02948 0.0
C456 C 0.19117 0.05059 0.02843 0.0
C457 C 0.16591 0.03371 0.02680 0.0
H458 H 0.13077 0.02957 0.02502 0.0
H459 H 0.19005 0.10285 0.02970 0.0
H460 H 0.21868 0.08832 0.03069 0.0
H461 H 0.15939 0.01503 0.02602 0.0
C462 C 0.84678 0.88555 0.02277 0.0
C463 C 0.86283 0.87673 0.02136 0.0
C464 C 0.85354 0.85142 0.01932 0.0
C465 C 0.82819 0.83492 0.01870 0.0
C466 C 0.81214 0.84374 0.02011 0.0
C467 C 0.82144 0.86905 0.02215 0.0
H468 H 0.85366 0.90429 0.02427 0.0
H469 H 0.86542 0.84489 0.01827 0.0
H470 H 0.82131 0.81618 0.01719 0.0
H471 H 0.80956 0.87558 0.02319 0.0
