data_{}
_symmetry_space_group_name_H-M    P1
_symmetry_Int_Tables_number       1
_symmetry_cell_setting            triclinic
loop_
_symmetry_equiv_pos_as_xyz
'x, y, z'
_cell_length_a     78.685
_cell_length_b     79.180
_cell_length_c     41.813
_cell_angle_alpha  90.522
_cell_angle_beta   90.101
_cell_angle_gamma  118.904
loop_
_atom_site_label
_atom_site_type_symbol
_atom_site_fract_x
_atom_site_fract_y
_atom_site_fract_z
_atom_type_partial_charge
C0 C 0.98051 0.00157 0.01500 0.0
C1 C 0.00010 0.06024 0.02266 0.0
O2 O 0.98881 0.00968 0.98963 0.0
O3 O 0.98754 0.00770 0.04205 0.0
C4 C 0.04235 0.04323 0.01749 0.0
Zn5 Zn 0.00878 0.03312 0.05108 0.0
O6 O 0.03590 0.04007 0.04534 0.0
O7 O 0.03271 0.04246 0.99353 0.0
O8 O 0.99990 0.05250 0.99621 0.0
O9 O 0.00288 0.05418 0.04845 0.0
C10 C 0.88765 0.36998 0.81275 0.0
C11 C 0.87379 0.35235 0.83250 0.0
C12 C 0.88167 0.34633 0.86144 0.0
C13 C 0.86800 0.32870 0.88138 0.0
C14 C 0.87604 0.32276 0.91026 0.0
C15 C 0.89772 0.33446 0.91906 0.0
C16 C 0.91136 0.35211 0.89920 0.0
C17 C 0.90333 0.35804 0.87037 0.0
C18 C 0.88999 0.31328 0.96709 0.0
C19 C 0.90115 0.31206 0.99630 0.0
C20 C 0.91081 0.29922 0.99496 0.0
C21 C 0.92504 0.30095 0.02169 0.0
C22 C 0.92772 0.31366 0.05143 0.0
C23 C 0.91655 0.32508 0.05402 0.0
C24 C 0.90327 0.32430 0.02638 0.0
C25 C 0.89336 0.33696 0.02772 0.0
C26 C 0.90753 0.28594 0.96573 0.0
C27 C 0.94211 0.31543 0.07796 0.0
C28 C 0.93681 0.29023 0.01863 0.0
C29 C 0.97037 0.29658 0.01097 0.0
C30 C 0.96182 0.27475 0.01601 0.0
C31 C 0.97538 0.26584 0.01774 0.0
C32 C 0.99746 0.27878 0.01441 0.0
C33 C 0.00599 0.30060 0.00910 0.0
C34 C 0.99243 0.30951 0.00738 0.0
C35 C 0.01097 0.26984 0.01647 0.0
C36 C 0.00233 0.24802 0.02193 0.0
C37 C 0.91945 0.33815 0.08325 0.0
C38 C 0.90603 0.33726 0.13648 0.0
C39 C 0.92106 0.35882 0.13902 0.0
C40 C 0.91922 0.37143 0.16553 0.0
C41 C 0.90231 0.36246 0.18936 0.0
C42 C 0.88732 0.34088 0.18683 0.0
C43 C 0.88918 0.32827 0.16037 0.0
C44 C 0.90028 0.37503 0.21571 0.0
C45 C 0.88322 0.36594 0.23922 0.0
O46 O 0.90568 0.32890 0.94746 0.0
O47 O 0.90726 0.32511 0.10963 0.0
O48 O 0.95715 0.30537 0.01034 0.0
H49 H 0.90367 0.37851 0.81963 0.0
H50 H 0.85776 0.34378 0.82569 0.0
H51 H 0.85196 0.32004 0.87478 0.0
H52 H 0.86596 0.30973 0.92509 0.0
H53 H 0.92739 0.36079 0.90587 0.0
H54 H 0.91342 0.37109 0.85562 0.0
H55 H 0.88275 0.29901 0.95326 0.0
H56 H 0.87880 0.31770 0.97484 0.0
H57 H 0.89963 0.34761 0.04860 0.0
H58 H 0.87706 0.32747 0.03109 0.0
H59 H 0.89614 0.34521 0.00440 0.0
H60 H 0.90230 0.29121 0.94454 0.0
H61 H 0.89603 0.27061 0.97178 0.0
H62 H 0.92163 0.28600 0.95932 0.0
H63 H 0.94287 0.32619 0.09697 0.0
H64 H 0.95708 0.32070 0.06705 0.0
H65 H 0.93711 0.30074 0.08927 0.0
H66 H 0.93685 0.28331 0.04241 0.0
H67 H 0.93053 0.27876 0.99890 0.0
H68 H 0.94547 0.26521 0.01861 0.0
H69 H 0.96908 0.24968 0.02155 0.0
H70 H 0.02234 0.31017 0.00652 0.0
H71 H 0.99871 0.32568 0.00358 0.0
H72 H 0.02734 0.27934 0.01400 0.0
H73 H 0.98597 0.23856 0.02438 0.0
H74 H 0.93536 0.34630 0.09090 0.0
H75 H 0.91411 0.34882 0.07716 0.0
H76 H 0.93346 0.36544 0.12117 0.0
H77 H 0.93031 0.38742 0.16745 0.0
H78 H 0.87481 0.33428 0.20450 0.0
H79 H 0.87803 0.31233 0.15831 0.0
H80 H 0.91133 0.39102 0.21778 0.0
H81 H 0.87219 0.34995 0.23705 0.0
C82 C 0.46766 0.16492 0.23097 0.0
C83 C 0.46429 0.14725 0.21059 0.0
C84 C 0.45045 0.14119 0.18154 0.0
C85 C 0.44688 0.12351 0.16097 0.0
C86 C 0.43296 0.11754 0.13200 0.0
C87 C 0.42265 0.12924 0.12373 0.0
C88 C 0.42628 0.14693 0.14421 0.0
C89 C 0.44016 0.15290 0.17314 0.0
C90 C 0.40960 0.10797 0.07502 0.0
C91 C 0.39717 0.10672 0.04588 0.0
C92 C 0.37501 0.09389 0.04694 0.0
C93 C 0.36239 0.09560 0.02038 0.0
C94 C 0.37197 0.10825 0.99103 0.0
C95 C 0.39425 0.11964 0.98867 0.0
C96 C 0.40686 0.11890 0.01617 0.0
C97 C 0.42908 0.13154 0.01510 0.0
C98 C 0.36547 0.08067 0.07576 0.0
C99 C 0.35923 0.10999 0.96468 0.0
C100 C 0.34019 0.08489 0.02324 0.0
C101 C 0.31286 0.09128 0.03138 0.0
C102 C 0.30014 0.06945 0.02564 0.0
C103 C 0.27792 0.06056 0.02378 0.0
C104 C 0.26845 0.07352 0.02767 0.0
C105 C 0.28118 0.09535 0.03369 0.0
C106 C 0.30341 0.10424 0.03554 0.0
C107 C 0.24623 0.06459 0.02548 0.0
C108 C 0.23361 0.04276 0.01932 0.0
C109 C 0.40398 0.13267 0.95983 0.0
C110 C 0.41635 0.13167 0.90646 0.0
C111 C 0.42229 0.15323 0.90467 0.0
C112 C 0.43633 0.16579 0.87850 0.0
C113 C 0.44441 0.15676 0.85427 0.0
C114 C 0.43841 0.13519 0.85604 0.0
C115 C 0.42436 0.12263 0.88216 0.0
C116 C 0.45859 0.16928 0.82826 0.0
C117 C 0.46671 0.16014 0.80434 0.0
O118 O 0.40919 0.12364 0.09524 0.0
O119 O 0.40339 0.11958 0.93297 0.0
O120 O 0.33463 0.10006 0.03215 0.0
H121 H 0.45992 0.17344 0.22447 0.0
H122 H 0.47199 0.13868 0.21701 0.0
H123 H 0.45451 0.11485 0.16719 0.0
H124 H 0.43031 0.10448 0.11671 0.0
H125 H 0.41867 0.15561 0.13794 0.0
H126 H 0.44283 0.16597 0.18836 0.0
H127 H 0.40299 0.09373 0.08838 0.0
H128 H 0.42507 0.11237 0.06730 0.0
H129 H 0.43311 0.14216 0.99458 0.0
H130 H 0.43612 0.12204 0.01131 0.0
H131 H 0.43441 0.13983 0.03868 0.0
H132 H 0.37589 0.08597 0.09706 0.0
H133 H 0.36202 0.06532 0.06916 0.0
H134 H 0.35145 0.08075 0.08230 0.0
H135 H 0.36888 0.12071 0.94598 0.0
H136 H 0.34943 0.11529 0.97587 0.0
H137 H 0.34990 0.09528 0.95290 0.0
H138 H 0.33334 0.07794 0.99990 0.0
H139 H 0.33538 0.07346 0.04258 0.0
H140 H 0.30719 0.05989 0.02262 0.0
H141 H 0.26847 0.04439 0.01945 0.0
H142 H 0.27416 0.10493 0.03669 0.0
H143 H 0.31288 0.12041 0.03986 0.0
H144 H 0.23914 0.07411 0.02837 0.0
H145 H 0.24075 0.03328 0.01645 0.0
H146 H 0.39598 0.14081 0.95257 0.0
H147 H 0.41971 0.14333 0.96618 0.0
H148 H 0.41641 0.15989 0.92282 0.0
H149 H 0.44080 0.18177 0.87714 0.0
H150 H 0.44442 0.12855 0.83807 0.0
H151 H 0.41999 0.10668 0.88366 0.0
H152 H 0.46309 0.18527 0.82674 0.0
H153 H 0.46218 0.14415 0.80595 0.0
C154 C 0.66032 0.58965 0.79833 0.0
C155 C 0.67820 0.59329 0.81850 0.0
C156 C 0.68415 0.60709 0.84757 0.0
C157 C 0.70204 0.61093 0.86793 0.0
C158 C 0.70790 0.62480 0.89693 0.0
C159 C 0.69589 0.63481 0.90545 0.0
C160 C 0.67799 0.63091 0.88518 0.0
C161 C 0.67213 0.61707 0.85622 0.0
C162 C 0.71729 0.64810 0.95397 0.0
C163 C 0.71840 0.66045 0.98320 0.0
C164 C 0.73105 0.68249 0.98215 0.0
C165 C 0.72916 0.69497 0.00883 0.0
C166 C 0.71652 0.68538 0.03828 0.0
C167 C 0.70531 0.66324 0.04062 0.0
C168 C 0.70623 0.65076 0.01300 0.0
C169 C 0.69377 0.62865 0.01407 0.0
C170 C 0.74428 0.69206 0.95322 0.0
C171 C 0.71458 0.69797 0.06476 0.0
C172 C 0.73966 0.71702 0.00601 0.0
C173 C 0.73274 0.74386 0.99817 0.0
C174 C 0.75469 0.75675 0.00372 0.0
C175 C 0.76335 0.77882 0.00564 0.0
C176 C 0.75006 0.78794 0.00200 0.0
C177 C 0.72813 0.77503 0.99618 0.0
C178 C 0.71946 0.75297 0.99427 0.0
C179 C 0.75877 0.81000 0.00425 0.0
C180 C 0.78070 0.82279 0.01022 0.0
C181 C 0.69229 0.65350 0.06955 0.0
C182 C 0.69355 0.64143 0.12282 0.0
C183 C 0.67179 0.63523 0.12485 0.0
C184 C 0.65930 0.62125 0.15108 0.0
C185 C 0.66861 0.61346 0.17513 0.0
C186 C 0.69038 0.61972 0.17310 0.0
C187 C 0.70287 0.63372 0.14692 0.0
C188 C 0.65616 0.59934 0.20119 0.0
C189 C 0.66559 0.59152 0.22492 0.0
O190 O 0.70138 0.64822 0.93397 0.0
O191 O 0.70558 0.65434 0.09624 0.0
O192 O 0.72418 0.72225 0.99735 0.0
H193 H 0.65156 0.59716 0.80501 0.0
H194 H 0.68700 0.58582 0.81190 0.0
H195 H 0.71093 0.60353 0.86153 0.0
H196 H 0.72111 0.62765 0.91207 0.0
H197 H 0.66908 0.63829 0.89164 0.0
H198 H 0.65890 0.61420 0.84116 0.0
H199 H 0.73162 0.65482 0.94048 0.0
H200 H 0.71309 0.63280 0.96163 0.0
H201 H 0.68309 0.62456 0.03470 0.0
H202 H 0.70352 0.62186 0.01767 0.0
H203 H 0.68542 0.62322 0.99055 0.0
H204 H 0.73905 0.68165 0.93191 0.0
H205 H 0.75979 0.69571 0.95963 0.0
H206 H 0.74397 0.70586 0.94680 0.0
H207 H 0.70388 0.68833 0.08353 0.0
H208 H 0.70904 0.70753 0.05372 0.0
H209 H 0.72935 0.70743 0.07641 0.0
H210 H 0.74663 0.72393 0.02994 0.0
H211 H 0.75115 0.72191 0.98654 0.0
H212 H 0.76449 0.74996 0.00655 0.0
H213 H 0.77960 0.78839 0.00982 0.0
H214 H 0.71830 0.78180 0.99337 0.0
H215 H 0.70321 0.74337 0.99010 0.0
H216 H 0.74901 0.81684 0.00155 0.0
H217 H 0.79043 0.81591 0.01290 0.0
H218 H 0.68392 0.66128 0.07700 0.0
H219 H 0.68172 0.63780 0.06322 0.0
H220 H 0.66492 0.64089 0.10684 0.0
H221 H 0.64317 0.61659 0.15263 0.0
H222 H 0.69723 0.61393 0.19093 0.0
H223 H 0.71896 0.63827 0.14524 0.0
H224 H 0.64003 0.59465 0.20289 0.0
H225 H 0.68172 0.59624 0.22312 0.0
O226 O 0.70928 0.38619 0.55108 0.0
O227 O 0.68756 0.35443 0.55290 0.0
O228 O 0.65955 0.39744 0.48130 0.0
O229 O 0.69192 0.41353 0.48646 0.0
O230 O 0.63550 0.35864 0.48872 0.0
O231 O 0.65336 0.34414 0.47679 0.0
O232 O 0.67399 0.37645 0.51813 0.0
C233 C 0.70259 0.36943 0.56262 0.0
C234 C 0.67603 0.41026 0.47394 0.0
C235 C 0.63910 0.34685 0.47289 0.0
Fe236 Fe 0.69916 0.39872 0.51917 0.0
Fe237 Fe 0.67110 0.35144 0.51463 0.0
Fe238 Fe 0.65156 0.38003 0.51948 0.0
C239 C 0.64062 0.34685 0.56246 0.0
O240 O 0.64815 0.33951 0.54459 0.0
O241 O 0.64131 0.36287 0.55848 0.0
C242 C 0.67850 0.41405 0.56070 0.0
O243 O 0.69438 0.41336 0.55510 0.0
O244 O 0.66274 0.40296 0.54786 0.0
O245 O 0.69377 0.35778 0.48454 0.0
O246 O 0.70984 0.38924 0.48296 0.0
C247 C 0.70645 0.37326 0.47447 0.0
C248 C 0.86953 0.37384 0.77655 0.0
C249 C 0.85298 0.37324 0.75601 0.0
C250 C 0.83642 0.37264 0.73547 0.0
C251 C 0.83793 0.37316 0.69874 0.0
C252 C 0.82137 0.37255 0.67822 0.0
C253 C 0.80331 0.37143 0.69443 0.0
C254 C 0.80180 0.37092 0.73116 0.0
C255 C 0.81836 0.37153 0.75168 0.0
C256 C 0.78674 0.37082 0.67390 0.0
C257 C 0.76867 0.36969 0.69009 0.0
C258 C 0.75211 0.36907 0.66955 0.0
C259 C 0.75363 0.36960 0.63282 0.0
C260 C 0.77171 0.37073 0.61662 0.0
C261 C 0.78827 0.37135 0.63716 0.0
C262 C 0.73708 0.36899 0.61227 0.0
C263 C 0.72054 0.36839 0.59168 0.0
H264 H 0.85131 0.37399 0.68674 0.0
H265 H 0.82249 0.37293 0.65103 0.0
H266 H 0.78842 0.37009 0.74316 0.0
H267 H 0.81725 0.37116 0.77887 0.0
H268 H 0.76754 0.36930 0.71728 0.0
H269 H 0.73872 0.36822 0.68153 0.0
H270 H 0.77284 0.37112 0.58943 0.0
H271 H 0.80166 0.37219 0.62518 0.0
C272 C 0.48643 0.17929 0.26374 0.0
C273 C 0.50159 0.19615 0.28417 0.0
C274 C 0.51675 0.21301 0.30461 0.0
C275 C 0.51190 0.22822 0.31860 0.0
C276 C 0.52706 0.24508 0.33904 0.0
C277 C 0.54708 0.24672 0.34548 0.0
C278 C 0.55194 0.23151 0.33149 0.0
C279 C 0.53678 0.21466 0.31105 0.0
C280 C 0.56224 0.26357 0.36594 0.0
C281 C 0.58226 0.26522 0.37241 0.0
C282 C 0.59741 0.28207 0.39287 0.0
C283 C 0.59255 0.29728 0.40683 0.0
C284 C 0.57253 0.29564 0.40036 0.0
C285 C 0.55738 0.27879 0.37991 0.0
C286 C 0.60770 0.31414 0.42729 0.0
C287 C 0.62284 0.33101 0.44774 0.0
H288 H 0.49707 0.22701 0.31383 0.0
H289 H 0.52347 0.25633 0.34940 0.0
H290 H 0.56676 0.23273 0.33626 0.0
H291 H 0.54037 0.20341 0.30067 0.0
H292 H 0.58587 0.25396 0.36206 0.0
H293 H 0.61223 0.28329 0.39768 0.0
H294 H 0.56893 0.30690 0.41071 0.0
H295 H 0.54256 0.27757 0.37511 0.0
C296 C 0.48741 0.18050 0.77181 0.0
C297 C 0.50264 0.19706 0.75163 0.0
C298 C 0.51786 0.21362 0.73145 0.0
C299 C 0.51173 0.22561 0.71033 0.0
C300 C 0.52696 0.24217 0.69017 0.0
C301 C 0.54833 0.24674 0.69112 0.0
C302 C 0.55447 0.23474 0.71223 0.0
C303 C 0.53923 0.21818 0.73239 0.0
C304 C 0.56356 0.26331 0.67096 0.0
C305 C 0.58493 0.26789 0.67192 0.0
C306 C 0.60016 0.28446 0.65176 0.0
C307 C 0.59401 0.29644 0.63063 0.0
C308 C 0.57264 0.29186 0.62967 0.0
C309 C 0.55741 0.27529 0.64983 0.0
C310 C 0.60923 0.31301 0.61046 0.0
C311 C 0.62443 0.32958 0.59026 0.0
H312 H 0.49591 0.22223 0.70962 0.0
H313 H 0.52242 0.25105 0.67454 0.0
H314 H 0.57029 0.23812 0.71294 0.0
H315 H 0.54377 0.20930 0.74801 0.0
H316 H 0.58949 0.25902 0.68755 0.0
H317 H 0.61599 0.28786 0.65248 0.0
H318 H 0.56809 0.30073 0.61403 0.0
H319 H 0.54159 0.27189 0.64912 0.0
C320 C 0.65849 0.56778 0.26152 0.0
C321 C 0.66033 0.55254 0.28165 0.0
C322 C 0.66217 0.53731 0.30178 0.0
C323 C 0.64630 0.52522 0.32606 0.0
C324 C 0.64815 0.50999 0.34617 0.0
C325 C 0.66586 0.50684 0.34202 0.0
C326 C 0.68173 0.51892 0.31774 0.0
C327 C 0.67988 0.53415 0.29763 0.0
C328 C 0.66770 0.49159 0.36212 0.0
C329 C 0.68540 0.48842 0.35796 0.0
C330 C 0.68723 0.47318 0.37807 0.0
C331 C 0.67136 0.46111 0.40237 0.0
C332 C 0.65366 0.46428 0.40653 0.0
C333 C 0.65183 0.47952 0.38642 0.0
C334 C 0.67319 0.44586 0.42249 0.0
C335 C 0.67500 0.43061 0.44264 0.0
H336 H 0.63319 0.52756 0.32914 0.0
H337 H 0.63641 0.50104 0.36414 0.0
H338 H 0.69484 0.51658 0.31466 0.0
H339 H 0.69163 0.54311 0.27967 0.0
H340 H 0.69715 0.49736 0.33999 0.0
H341 H 0.70033 0.47082 0.37498 0.0
H342 H 0.64191 0.45534 0.42451 0.0
H343 H 0.63873 0.48188 0.38950 0.0
C344 C 0.65752 0.56952 0.76425 0.0
C345 C 0.65971 0.55420 0.74442 0.0
C346 C 0.66189 0.53888 0.72459 0.0
C347 C 0.67884 0.53487 0.73146 0.0
C348 C 0.68101 0.51955 0.71162 0.0
C349 C 0.66624 0.50824 0.68491 0.0
C350 C 0.64929 0.51226 0.67803 0.0
C351 C 0.64712 0.52758 0.69787 0.0
C352 C 0.66841 0.49291 0.66510 0.0
C353 C 0.65363 0.48159 0.63840 0.0
C354 C 0.65581 0.46627 0.61859 0.0
C355 C 0.67277 0.46227 0.62546 0.0
C356 C 0.68755 0.47359 0.65216 0.0
C357 C 0.68537 0.48892 0.67197 0.0
C358 C 0.67496 0.44695 0.60565 0.0
C359 C 0.67717 0.43163 0.58586 0.0
H360 H 0.68978 0.54324 0.75123 0.0
H361 H 0.69355 0.51657 0.71672 0.0
H362 H 0.63835 0.50389 0.65826 0.0
H363 H 0.63459 0.53056 0.69277 0.0
H364 H 0.64108 0.48455 0.63329 0.0
H365 H 0.64487 0.45787 0.59883 0.0
H366 H 0.70010 0.47063 0.65726 0.0
H367 H 0.69631 0.49730 0.69174 0.0
C368 C 0.87171 0.37466 0.27000 0.0
C369 C 0.85520 0.37445 0.29002 0.0
C370 C 0.83870 0.37425 0.31003 0.0
C371 C 0.82179 0.37535 0.29337 0.0
C372 C 0.80529 0.37514 0.31341 0.0
C373 C 0.80569 0.37383 0.35009 0.0
C374 C 0.82259 0.37273 0.36676 0.0
C375 C 0.83909 0.37294 0.34673 0.0
C376 C 0.78917 0.37361 0.37011 0.0
C377 C 0.78956 0.37229 0.40680 0.0
C378 C 0.77304 0.37207 0.42681 0.0
C379 C 0.75615 0.37319 0.41013 0.0
C380 C 0.75577 0.37451 0.37344 0.0
C381 C 0.77228 0.37473 0.35344 0.0
C382 C 0.73963 0.37297 0.43014 0.0
C383 C 0.72311 0.37276 0.45010 0.0
H384 H 0.82150 0.37633 0.26621 0.0
H385 H 0.79278 0.37596 0.30107 0.0
H386 H 0.82288 0.37176 0.39392 0.0
H387 H 0.85161 0.37213 0.35906 0.0
H388 H 0.80206 0.37147 0.41916 0.0
H389 H 0.77331 0.37107 0.45397 0.0
H390 H 0.74326 0.37533 0.36109 0.0
H391 H 0.77201 0.37571 0.32627 0.0
C392 C 0.00317 0.12464 0.01930 0.0
C393 C 0.02157 0.12242 0.01960 0.0
C394 C 0.01976 0.10216 0.01900 0.0
C395 C 0.99990 0.08413 0.01808 0.0
C396 C 0.98117 0.08635 0.01777 0.0
C397 C 0.98298 0.10660 0.01837 0.0
C398 C 0.00489 0.14485 0.01997 0.0
C399 C 0.00647 0.16501 0.02064 0.0
C400 C 0.00792 0.18511 0.02134 0.0
C401 C 0.02794 0.20338 0.02243 0.0
C402 C 0.02931 0.22346 0.02320 0.0
C403 C 0.01067 0.22525 0.02286 0.0
C404 C 0.99066 0.20698 0.02177 0.0
C405 C 0.98929 0.18691 0.02101 0.0
H406 H 0.03652 0.13578 0.02030 0.0
H407 H 0.03338 0.10052 0.01924 0.0
H408 H 0.96622 0.07301 0.01707 0.0
H409 H 0.96936 0.10825 0.01815 0.0
H410 H 0.04173 0.20205 0.02268 0.0
H411 H 0.04412 0.23699 0.02397 0.0
H412 H 0.97686 0.20830 0.02152 0.0
H413 H 0.97448 0.17338 0.02016 0.0
C414 C 0.10728 0.04372 0.01732 0.0
C415 C 0.10779 0.06338 0.01552 0.0
C416 C 0.08869 0.06432 0.01536 0.0
C417 C 0.06909 0.04561 0.01702 0.0
C418 C 0.06859 0.02596 0.01883 0.0
C419 C 0.08768 0.02502 0.01898 0.0
C420 C 0.12633 0.04270 0.01741 0.0
C421 C 0.14530 0.04153 0.01751 0.0
C422 C 0.16420 0.04023 0.01760 0.0
C423 C 0.18399 0.05871 0.01580 0.0
C424 C 0.20286 0.05733 0.01581 0.0
C425 C 0.20193 0.03747 0.01765 0.0
C426 C 0.18213 0.01900 0.01946 0.0
C427 C 0.16328 0.02039 0.01943 0.0
H428 H 0.12230 0.07723 0.01427 0.0
H429 H 0.08906 0.07887 0.01401 0.0
H430 H 0.05408 0.01211 0.02007 0.0
H431 H 0.08731 0.01048 0.02032 0.0
H432 H 0.18468 0.07340 0.01443 0.0
H433 H 0.21752 0.07100 0.01452 0.0
H434 H 0.18144 0.00431 0.02082 0.0
H435 H 0.14862 0.00672 0.02080 0.0
C436 C 0.91025 0.94121 0.01485 0.0
C437 C 0.92807 0.93803 0.01441 0.0
C438 C 0.94868 0.95549 0.01479 0.0
C439 C 0.95144 0.97612 0.01564 0.0
C440 C 0.93362 0.97929 0.01610 0.0
C441 C 0.91303 0.96183 0.01570 0.0
C442 C 0.88962 0.92380 0.01439 0.0
C443 C 0.86895 0.90648 0.01393 0.0
C444 C 0.84822 0.88925 0.01345 0.0
C445 C 0.84504 0.86847 0.01244 0.0
C446 C 0.82427 0.85128 0.01188 0.0
C447 C 0.80669 0.85487 0.01236 0.0
C448 C 0.80989 0.87565 0.01338 0.0
C449 C 0.83065 0.89283 0.01392 0.0
H450 H 0.92602 0.92276 0.01376 0.0
H451 H 0.96187 0.95315 0.01444 0.0
H452 H 0.93566 0.99455 0.01674 0.0
H453 H 0.89983 0.96418 0.01603 0.0
H454 H 0.85804 0.86582 0.01208 0.0
H455 H 0.82190 0.83590 0.01117 0.0
H456 H 0.79688 0.87831 0.01374 0.0
H457 H 0.83301 0.90822 0.01472 0.0
