data_{}
_symmetry_space_group_name_H-M    P1
_symmetry_Int_Tables_number       1
_symmetry_cell_setting            triclinic
loop_
_symmetry_equiv_pos_as_xyz
'x, y, z'
_cell_length_a     61.782
_cell_length_b     59.473
_cell_length_c     35.420
_cell_angle_alpha  89.903
_cell_angle_beta   90.207
_cell_angle_gamma  128.455
loop_
_atom_site_label
_atom_site_type_symbol
_atom_site_fract_x
_atom_site_fract_y
_atom_site_fract_z
_atom_type_partial_charge
H0 H 0.97960 0.04249 0.00276 0.0
H1 H 0.00010 0.05453 0.03710 0.0
H2 H 0.01162 0.04139 0.96653 0.0
H3 H 0.05068 0.07693 0.00472 0.0
H4 H 0.04008 0.05361 0.03593 0.0
C5 C 0.99898 0.05428 0.00977 0.0
C6 C 0.01121 0.04028 0.99415 0.0
C7 C 0.04080 0.05658 0.00890 0.0
C8 C 0.88602 0.33715 0.75241 0.0
C9 C 0.86555 0.30998 0.77606 0.0
C10 C 0.87611 0.30329 0.81030 0.0
C11 C 0.85591 0.27616 0.83417 0.0
C12 C 0.86669 0.26962 0.86832 0.0
C13 C 0.89764 0.29019 0.87845 0.0
C14 C 0.91779 0.31735 0.85468 0.0
C15 C 0.90703 0.32388 0.82058 0.0
C16 C 0.88546 0.25937 0.93552 0.0
C17 C 0.90091 0.25997 0.96999 0.0
C18 C 0.91340 0.24430 0.96858 0.0
C19 C 0.93331 0.24959 0.00010 0.0
C20 C 0.93799 0.26759 0.03495 0.0
C21 C 0.92330 0.28099 0.03786 0.0
C22 C 0.90478 0.27721 0.00528 0.0
C23 C 0.89192 0.29257 0.00670 0.0
C24 C 0.90785 0.22539 0.93431 0.0
C25 C 0.95814 0.27298 0.06619 0.0
C26 C 0.94888 0.23727 0.99659 0.0
C27 C 0.99590 0.25298 0.98733 0.0
C28 C 0.98248 0.22116 0.99367 0.0
C29 C 0.00010 0.21171 0.99581 0.0
C30 C 0.03224 0.23410 0.99160 0.0
C31 C 0.04563 0.26590 0.98494 0.0
C32 C 0.02744 0.27535 0.98282 0.0
C33 C 0.05036 0.22458 0.99413 0.0
C34 C 0.03681 0.19276 0.00010 0.0
C35 C 0.92831 0.29955 0.07215 0.0
C36 C 0.90970 0.29546 0.13504 0.0
C37 C 0.93211 0.32824 0.13764 0.0
C38 C 0.93050 0.34518 0.16874 0.0
C39 C 0.90642 0.32929 0.19706 0.0
C40 C 0.88407 0.29650 0.19447 0.0
C41 C 0.88571 0.27956 0.16343 0.0
C42 C 0.90454 0.34614 0.22797 0.0
C43 C 0.88025 0.33006 0.25592 0.0
O44 O 0.90833 0.28415 0.91204 0.0
O45 O 0.91049 0.27904 0.10353 0.0
O46 O 0.97819 0.26235 0.98649 0.0
H47 H 0.90888 0.35219 0.76035 0.0
H48 H 0.84268 0.29488 0.76821 0.0
H49 H 0.83301 0.26093 0.82656 0.0
H50 H 0.85179 0.24958 0.88607 0.0
H51 H 0.94068 0.33260 0.86236 0.0
H52 H 0.92194 0.34394 0.80292 0.0
H53 H 0.87438 0.23826 0.91945 0.0
H54 H 0.87025 0.26313 0.94463 0.0
H55 H 0.90142 0.30850 0.03115 0.0
H56 H 0.86863 0.27613 0.01088 0.0
H57 H 0.89633 0.30454 0.97902 0.0
H58 H 0.90094 0.23159 0.90922 0.0
H59 H 0.89080 0.20189 0.94174 0.0
H60 H 0.92741 0.22839 0.92669 0.0
H61 H 0.95998 0.28791 0.08847 0.0
H62 H 0.97927 0.28335 0.05319 0.0
H63 H 0.95016 0.25171 0.07981 0.0
H64 H 0.94848 0.22774 0.02477 0.0
H65 H 0.93931 0.22022 0.97351 0.0
H66 H 0.95911 0.20464 0.99694 0.0
H67 H 0.99078 0.18816 0.00010 0.0
H68 H 0.06900 0.28245 0.98169 0.0
H69 H 0.03731 0.29891 0.97805 0.0
H70 H 0.07375 0.24106 0.99101 0.0
H71 H 0.01342 0.17634 0.00406 0.0
H72 H 0.95099 0.31404 0.08099 0.0
H73 H 0.92166 0.31313 0.06480 0.0
H74 H 0.94977 0.33995 0.11642 0.0
H75 H 0.94703 0.36947 0.17071 0.0
H76 H 0.86626 0.28480 0.21548 0.0
H77 H 0.86909 0.25531 0.16131 0.0
H78 H 0.92104 0.37043 0.23012 0.0
H79 H 0.86380 0.30577 0.25366 0.0
C80 C 0.44330 0.12971 0.25277 0.0
C81 C 0.43181 0.10269 0.22907 0.0
C82 C 0.41311 0.09556 0.19481 0.0
C83 C 0.40138 0.06856 0.17089 0.0
C84 C 0.38262 0.06157 0.13671 0.0
C85 C 0.37562 0.08157 0.12660 0.0
C86 C 0.38742 0.10859 0.15043 0.0
C87 C 0.40614 0.11557 0.18455 0.0
C88 C 0.35134 0.05057 0.06947 0.0
C89 C 0.33634 0.05071 0.03499 0.0
C90 C 0.30496 0.03437 0.03634 0.0
C91 C 0.29101 0.03916 0.00486 0.0
C92 C 0.30768 0.05735 0.97001 0.0
C93 C 0.33859 0.07144 0.96715 0.0
C94 C 0.35294 0.06815 0.99990 0.0
C95 C 0.38431 0.08419 0.99837 0.0
C96 C 0.28808 0.01528 0.07058 0.0
C97 C 0.29360 0.06222 0.93877 0.0
C98 C 0.26048 0.02614 0.00829 0.0
C99 C 0.23130 0.04068 0.01755 0.0
C100 C 0.20709 0.00869 0.01114 0.0
C101 C 0.17732 0.99851 0.00896 0.0
C102 C 0.17183 0.02034 0.01320 0.0
C103 C 0.19606 0.05231 0.01993 0.0
C104 C 0.22583 0.06248 0.02209 0.0
C105 C 0.14206 0.01009 0.01063 0.0
C106 C 0.11797 0.97811 0.00373 0.0
C107 C 0.35559 0.09018 0.93291 0.0
C108 C 0.36970 0.08661 0.87002 0.0
C109 C 0.38591 0.11929 0.86748 0.0
C110 C 0.40774 0.13660 0.83643 0.0
C111 C 0.41334 0.12116 0.80808 0.0
C112 C 0.39706 0.08846 0.81061 0.0
C113 C 0.37521 0.07116 0.84160 0.0
C114 C 0.43532 0.13838 0.77722 0.0
C115 C 0.44092 0.12276 0.74925 0.0
O116 O 0.35756 0.07510 0.09299 0.0
O117 O 0.34933 0.06985 0.90148 0.0
O118 O 0.26049 0.05076 0.01843 0.0
H119 H 0.43794 0.14433 0.24485 0.0
H120 H 0.43711 0.08802 0.23690 0.0
H121 H 0.40656 0.05375 0.17847 0.0
H122 H 0.37394 0.04163 0.11892 0.0
H123 H 0.38228 0.12343 0.14277 0.0
H124 H 0.41484 0.13554 0.20225 0.0
H125 H 0.33748 0.02941 0.08549 0.0
H126 H 0.37130 0.05487 0.06038 0.0
H127 H 0.39361 0.10012 0.97395 0.0
H128 H 0.38846 0.06817 0.99416 0.0
H129 H 0.39406 0.09623 0.02607 0.0
H130 H 0.30250 0.02181 0.09569 0.0
H131 H 0.27748 0.99189 0.06310 0.0
H132 H 0.27175 0.01774 0.07818 0.0
H133 H 0.30950 0.07737 0.91653 0.0
H134 H 0.28441 0.07212 0.95178 0.0
H135 H 0.27640 0.04081 0.92511 0.0
H136 H 0.24955 0.01644 0.98008 0.0
H137 H 0.24992 0.00907 0.03134 0.0
H138 H 0.21122 0.99259 0.00784 0.0
H139 H 0.15936 0.97484 0.00413 0.0
H140 H 0.19197 0.06844 0.02320 0.0
H141 H 0.24382 0.08617 0.02691 0.0
H142 H 0.13786 0.02615 0.01378 0.0
H143 H 0.12223 0.96211 0.00010 0.0
H144 H 0.34977 0.10425 0.92408 0.0
H145 H 0.37853 0.10421 0.94029 0.0
H146 H 0.38187 0.13067 0.88872 0.0
H147 H 0.41982 0.16082 0.83451 0.0
H148 H 0.40126 0.07710 0.78959 0.0
H149 H 0.36327 0.04699 0.84369 0.0
H150 H 0.44744 0.16260 0.77511 0.0
H151 H 0.42875 0.09853 0.75147 0.0
C152 C 0.66999 0.56357 0.75134 0.0
C153 C 0.69550 0.57367 0.77518 0.0
C154 C 0.70365 0.59347 0.80938 0.0
C155 C 0.72916 0.60383 0.83344 0.0
C156 C 0.73719 0.62371 0.86754 0.0
C157 C 0.71972 0.63320 0.87743 0.0
C158 C 0.69418 0.62277 0.85346 0.0
C159 C 0.68617 0.60292 0.81941 0.0
C160 C 0.74998 0.65691 0.93465 0.0
C161 C 0.75121 0.67333 0.96902 0.0
C162 C 0.76887 0.70620 0.96757 0.0
C163 C 0.76581 0.72189 0.99892 0.0
C164 C 0.74780 0.70527 0.03373 0.0
C165 C 0.73222 0.67271 0.03670 0.0
C166 C 0.73389 0.65672 0.00425 0.0
C167 C 0.71650 0.62382 0.00570 0.0
C168 C 0.78772 0.72297 0.93338 0.0
C169 C 0.74467 0.72112 0.06483 0.0
C170 C 0.78039 0.75414 0.99537 0.0
C171 C 0.76989 0.78743 0.98579 0.0
C172 C 0.80106 0.81102 0.99229 0.0
C173 C 0.81300 0.84269 0.99433 0.0
C174 C 0.79374 0.85070 0.98987 0.0
C175 C 0.76258 0.82709 0.98305 0.0
C176 C 0.75065 0.79543 0.98101 0.0
C177 C 0.80574 0.88237 0.99231 0.0
C178 C 0.83690 0.90583 0.99990 0.0
C179 C 0.71368 0.65577 0.07091 0.0
C180 C 0.71560 0.63994 0.13393 0.0
C181 C 0.68453 0.62518 0.13630 0.0
C182 C 0.66685 0.60283 0.16737 0.0
C183 C 0.68030 0.59526 0.19588 0.0
C184 C 0.71140 0.61010 0.19352 0.0
C185 C 0.72907 0.63247 0.16251 0.0
C186 C 0.66270 0.57274 0.22676 0.0
C187 C 0.67632 0.56516 0.25491 0.0
O188 O 0.72721 0.65236 0.91096 0.0
O189 O 0.73264 0.66075 0.10246 0.0
O190 O 0.75809 0.75639 0.98503 0.0
H191 H 0.65724 0.57077 0.75910 0.0
H192 H 0.70830 0.56653 0.76752 0.0
H193 H 0.74210 0.59682 0.82602 0.0
H194 H 0.75603 0.63138 0.88543 0.0
H195 H 0.68122 0.62974 0.86096 0.0
H196 H 0.66729 0.59523 0.80161 0.0
H197 H 0.77041 0.67017 0.91870 0.0
H198 H 0.74427 0.63544 0.94384 0.0
H199 H 0.70122 0.61507 0.03005 0.0
H200 H 0.73063 0.61781 0.01008 0.0
H201 H 0.70472 0.61427 0.97797 0.0
H202 H 0.78050 0.70780 0.90832 0.0
H203 H 0.80986 0.73244 0.94097 0.0
H204 H 0.78698 0.74109 0.92563 0.0
H205 H 0.72949 0.70506 0.08706 0.0
H206 H 0.73655 0.73209 0.05167 0.0
H207 H 0.76562 0.73798 0.07855 0.0
H208 H 0.79016 0.76521 0.02358 0.0
H209 H 0.79682 0.76417 0.97240 0.0
H210 H 0.81526 0.80503 0.99575 0.0
H211 H 0.83607 0.86020 0.99990 0.0
H212 H 0.74835 0.83305 0.97961 0.0
H213 H 0.72756 0.77788 0.97613 0.0
H214 H 0.79159 0.88844 0.98900 0.0
H215 H 0.85099 0.89969 0.00259 0.0
H216 H 0.70147 0.66343 0.07957 0.0
H217 H 0.69888 0.63193 0.06357 0.0
H218 H 0.67460 0.63066 0.11494 0.0
H219 H 0.64381 0.59181 0.16918 0.0
H220 H 0.72130 0.60445 0.21467 0.0
H221 H 0.75206 0.64335 0.16055 0.0
H222 H 0.63965 0.56167 0.22875 0.0
H223 H 0.69936 0.57627 0.25280 0.0
O224 O 0.67745 0.39279 0.54137 0.0
O225 O 0.70421 0.38795 0.57521 0.0
Zn226 Zn 0.68694 0.34947 0.55617 0.0
Zn227 Zn 0.69074 0.35147 0.44938 0.0
C228 C 0.63214 0.31826 0.43480 0.0
Zn229 Zn 0.65428 0.36188 0.49982 0.0
C230 C 0.69999 0.40368 0.44144 0.0
O231 O 0.65489 0.32355 0.42424 0.0
O232 O 0.63017 0.33221 0.45776 0.0
O233 O 0.68029 0.39429 0.46128 0.0
O234 O 0.70930 0.39062 0.43206 0.0
C235 C 0.72671 0.34280 0.42121 0.0
C236 C 0.72070 0.33965 0.59024 0.0
C237 C 0.62761 0.31588 0.56226 0.0
C238 C 0.69563 0.40140 0.56399 0.0
O239 O 0.70510 0.33286 0.56386 0.0
O240 O 0.72131 0.35408 0.61804 0.0
O241 O 0.67906 0.34792 0.50203 0.0
O242 O 0.70932 0.33508 0.44516 0.0
O243 O 0.72931 0.35827 0.39322 0.0
O244 O 0.64949 0.32071 0.57627 0.0
O245 O 0.62729 0.33070 0.53869 0.0
H246 H 0.84913 0.32595 0.75275 0.0
H247 H 0.84696 0.32062 0.68358 0.0
H248 H 0.81387 0.32495 0.71542 0.0
H249 H 0.74107 0.31747 0.56960 0.0
H250 H 0.74324 0.32280 0.63876 0.0
H251 H 0.77632 0.31847 0.60693 0.0
H252 H 0.76466 0.35499 0.56469 0.0
H253 H 0.76683 0.36032 0.63386 0.0
H254 H 0.79991 0.35599 0.60202 0.0
H255 H 0.87272 0.36347 0.74784 0.0
H256 H 0.87055 0.35814 0.67868 0.0
H257 H 0.83747 0.36247 0.71051 0.0
C258 C 0.86560 0.34327 0.73533 0.0
C259 C 0.85409 0.34085 0.69654 0.0
C260 C 0.83031 0.34226 0.69783 0.0
C261 C 0.81887 0.33977 0.65815 0.0
C262 C 0.74819 0.33767 0.58211 0.0
C263 C 0.75970 0.34009 0.62090 0.0
C264 C 0.78348 0.33868 0.61961 0.0
C265 C 0.79492 0.34117 0.65929 0.0
H266 H 0.48228 0.13230 0.29234 0.0
H267 H 0.47397 0.15851 0.33576 0.0
H268 H 0.52146 0.17347 0.33067 0.0
H269 H 0.59136 0.28284 0.45203 0.0
H270 H 0.59967 0.25663 0.40861 0.0
H271 H 0.55218 0.24167 0.41371 0.0
H272 H 0.59873 0.30672 0.41554 0.0
H273 H 0.60703 0.28051 0.37211 0.0
H274 H 0.55955 0.26555 0.37721 0.0
H275 H 0.48964 0.15618 0.25584 0.0
H276 H 0.48133 0.18239 0.29926 0.0
H277 H 0.52882 0.19735 0.29417 0.0
C278 C 0.47758 0.14584 0.28124 0.0
C279 C 0.48610 0.16869 0.31009 0.0
C280 C 0.51677 0.18710 0.31969 0.0
C281 C 0.52507 0.21022 0.34905 0.0
C282 C 0.60343 0.29319 0.42664 0.0
C283 C 0.59491 0.27033 0.39779 0.0
C284 C 0.56423 0.25193 0.38819 0.0
C285 C 0.55594 0.22881 0.35882 0.0
H286 H 0.46220 0.12896 0.68008 0.0
H287 H 0.50508 0.16489 0.71511 0.0
H288 H 0.50383 0.17056 0.64572 0.0
H289 H 0.63123 0.29076 0.61294 0.0
H290 H 0.58835 0.25483 0.57791 0.0
H291 H 0.58961 0.24917 0.64730 0.0
H292 H 0.61985 0.31111 0.62048 0.0
H293 H 0.57698 0.27518 0.58545 0.0
H294 H 0.57823 0.26952 0.65483 0.0
H295 H 0.45082 0.14931 0.68761 0.0
H296 H 0.49370 0.18524 0.72265 0.0
H297 H 0.49245 0.19090 0.65326 0.0
C298 C 0.46300 0.14356 0.69946 0.0
C299 C 0.49263 0.17041 0.70303 0.0
C300 C 0.50475 0.18527 0.66515 0.0
C301 C 0.53488 0.21252 0.66931 0.0
C302 C 0.61906 0.29651 0.60109 0.0
C303 C 0.58943 0.26966 0.59752 0.0
C304 C 0.57730 0.25481 0.63541 0.0
C305 C 0.54718 0.22755 0.63125 0.0
H306 H 0.69567 0.55117 0.27397 0.0
H307 H 0.65458 0.50119 0.28555 0.0
H308 H 0.70022 0.51782 0.30988 0.0
H309 H 0.66710 0.39968 0.39369 0.0
H310 H 0.70819 0.44966 0.38210 0.0
H311 H 0.66255 0.43303 0.35778 0.0
H312 H 0.66118 0.41026 0.43620 0.0
H313 H 0.70227 0.46025 0.42461 0.0
H314 H 0.65663 0.44361 0.40029 0.0
H315 H 0.68976 0.56176 0.31648 0.0
H316 H 0.64866 0.51177 0.32806 0.0
H317 H 0.69431 0.52840 0.35239 0.0
C318 C 0.67979 0.54661 0.29325 0.0
C319 C 0.66481 0.51665 0.30870 0.0
C320 C 0.68426 0.51313 0.32922 0.0
C321 C 0.66869 0.48255 0.34474 0.0
C322 C 0.67706 0.41482 0.41691 0.0
C323 C 0.69204 0.44478 0.40146 0.0
C324 C 0.67260 0.44830 0.38094 0.0
C325 C 0.68817 0.47888 0.36542 0.0
H326 H 0.63610 0.51010 0.71666 0.0
H327 H 0.68075 0.51953 0.72424 0.0
H328 H 0.64510 0.47986 0.68193 0.0
H329 H 0.70902 0.42901 0.62017 0.0
H330 H 0.66436 0.41958 0.61260 0.0
H331 H 0.70001 0.45925 0.65491 0.0
H332 H 0.72246 0.45304 0.58195 0.0
H333 H 0.67780 0.44360 0.57438 0.0
H334 H 0.71345 0.48327 0.61668 0.0
H335 H 0.64953 0.53412 0.67844 0.0
H336 H 0.69419 0.54355 0.68601 0.0
H337 H 0.65854 0.50388 0.64370 0.0
C338 C 0.65476 0.52948 0.70505 0.0
C339 C 0.67524 0.52411 0.69758 0.0
C340 C 0.66386 0.49924 0.67030 0.0
C341 C 0.68495 0.49408 0.66303 0.0
C342 C 0.70380 0.43365 0.59356 0.0
C343 C 0.68331 0.43903 0.60103 0.0
C344 C 0.69469 0.46390 0.62831 0.0
C345 C 0.67360 0.46906 0.63558 0.0
H346 H 0.87091 0.32469 0.31869 0.0
H347 H 0.83567 0.32163 0.28073 0.0
H348 H 0.83441 0.32424 0.35069 0.0
H349 H 0.72512 0.32020 0.37576 0.0
H350 H 0.76037 0.32326 0.41371 0.0
H351 H 0.76162 0.32065 0.34375 0.0
H352 H 0.74666 0.35787 0.37323 0.0
H353 H 0.78190 0.36093 0.41118 0.0
H354 H 0.78315 0.35831 0.34122 0.0
H355 H 0.89245 0.36236 0.31616 0.0
H356 H 0.85720 0.35930 0.27820 0.0
H357 H 0.85595 0.36191 0.34816 0.0
C358 C 0.87669 0.34268 0.30129 0.0
C359 C 0.85165 0.34133 0.29585 0.0
C360 C 0.84009 0.34223 0.33324 0.0
C361 C 0.81465 0.34083 0.32717 0.0
C362 C 0.74088 0.33988 0.39062 0.0
C363 C 0.76592 0.34123 0.39607 0.0
C364 C 0.77748 0.34033 0.35867 0.0
C365 C 0.80293 0.34173 0.36474 0.0
C366 C 0.02350 0.09293 0.01062 0.0
H367 H 0.04127 0.10063 0.99846 0.0
H368 H 0.02478 0.08947 0.03759 0.0
C369 C 0.01860 0.11458 0.00757 0.0
H370 H 0.00133 0.10937 0.01542 0.0
C371 C 0.03744 0.14050 0.99435 0.0
H372 H 0.05404 0.14507 0.98455 0.0
C373 C 0.03387 0.16303 0.99410 0.0
H374 H 0.03150 0.16690 0.96784 0.0
H375 H 0.01717 0.15638 0.00858 0.0
C376 C 0.05708 0.02937 0.98783 0.0
H377 H 0.07322 0.04311 0.97170 0.0
H378 H 0.04057 0.01758 0.97135 0.0
C379 C 0.06154 0.01027 0.00765 0.0
H380 H 0.04872 0.99737 0.02639 0.0
C381 C 0.08262 0.01084 0.99990 0.0
H382 H 0.09621 0.02488 0.98276 0.0
C383 C 0.08611 0.99038 0.01694 0.0
H384 H 0.10183 0.00010 0.03489 0.0
H385 H 0.06922 0.97525 0.03095 0.0
C386 C 0.96024 0.00010 0.01517 0.0
H387 H 0.95900 0.01464 0.02649 0.0
H388 H 0.96429 0.99202 0.03565 0.0
C389 C 0.93312 0.97691 0.99717 0.0
H390 H 0.93176 0.96267 0.98260 0.0
C391 C 0.91121 0.97553 0.00010 0.0
H392 H 0.91306 0.99069 0.01365 0.0
C393 C 0.88356 0.95120 0.98598 0.0
H394 H 0.87856 0.95776 0.96438 0.0
H395 H 0.88400 0.93573 0.97703 0.0
