data_{}
_symmetry_space_group_name_H-M    P1
_symmetry_Int_Tables_number       1
_symmetry_cell_setting            triclinic
loop_
_symmetry_equiv_pos_as_xyz
'x, y, z'
_cell_length_a     41.203
_cell_length_b     39.405
_cell_length_c     73.445
_cell_angle_alpha  89.378
_cell_angle_beta   91.496
_cell_angle_gamma  89.589
loop_
_atom_site_label
_atom_site_type_symbol
_atom_site_fract_x
_atom_site_fract_y
_atom_site_fract_z
_atom_type_partial_charge
C0 C 0.99297 0.03878 0.03256 0.0
C1 C 0.02502 0.03427 0.02249 0.0
C2 C 0.05712 0.02894 0.03340 0.0
C3 C 0.05716 0.02810 0.05437 0.0
C4 C 0.02512 0.03260 0.06443 0.0
C5 C 0.99302 0.03794 0.05352 0.0
C6 C 0.02648 0.03567 0.00155 0.0
C7 C 0.02734 0.06942 0.99081 0.0
C8 C 0.02704 0.06928 0.96984 0.0
C9 C 0.02589 0.03539 0.95961 0.0
C10 C 0.02504 0.00164 0.97035 0.0
C11 C 0.02534 0.00177 0.99132 0.0
H12 H 0.96921 0.04273 0.02448 0.0
H13 H 0.08084 0.02560 0.02595 0.0
H14 H 0.02818 0.09451 0.99838 0.0
H15 H 0.02470 0.97679 0.99990 0.0
H16 H 0.02516 0.03199 0.07995 0.0
H17 H 0.02760 0.03697 0.94412 0.0
Si18 Si 0.53502 0.53838 0.51763 0.0
C19 C 0.60929 0.56258 0.55446 0.0
C20 C 0.50698 0.60867 0.47760 0.0
C21 C 0.50912 0.58037 0.48911 0.0
C22 C 0.53503 0.57631 0.50209 0.0
C23 C 0.55926 0.60082 0.50230 0.0
C24 C 0.55761 0.62866 0.49042 0.0
C25 C 0.53150 0.63264 0.47839 0.0
C26 C 0.50539 0.45015 0.49102 0.0
C27 C 0.50744 0.47660 0.50335 0.0
C28 C 0.53128 0.50091 0.50219 0.0
C29 C 0.55372 0.49848 0.48820 0.0
C30 C 0.55231 0.47238 0.47585 0.0
C31 C 0.52843 0.44820 0.47715 0.0
H32 H 0.65462 0.54317 0.55558 0.0
C33 C 0.44814 0.56872 0.53992 0.0
C34 C 0.44256 0.54387 0.55286 0.0
C35 C 0.46449 0.51765 0.55570 0.0
C36 C 0.49225 0.51636 0.54565 0.0
C37 C 0.49877 0.54091 0.53247 0.0
H38 H 0.53030 0.65162 0.47074 0.0
C39 C 0.47601 0.56670 0.52984 0.0
H40 H 0.49324 0.56379 0.48829 0.0
H41 H 0.52749 0.43057 0.46887 0.0
H42 H 0.42390 0.54488 0.55969 0.0
C43 C 0.63444 0.54143 0.54969 0.0
H44 H 0.57677 0.59856 0.51049 0.0
H45 H 0.49245 0.47797 0.51256 0.0
H46 H 0.56984 0.51478 0.48723 0.0
C47 C 0.62976 0.51731 0.53600 0.0
C48 C 0.59984 0.51583 0.52681 0.0
C49 C 0.57367 0.53725 0.53133 0.0
C50 C 0.57948 0.55992 0.54528 0.0
H51 H 0.50700 0.49866 0.54770 0.0
H52 H 0.47966 0.58325 0.52101 0.0
H53 H 0.59703 0.50036 0.51744 0.0
H54 H 0.56263 0.57413 0.54868 0.0
C55 C 0.84165 0.44524 0.62447 0.0
C56 C 0.85755 0.40982 0.62358 0.0
C57 C 0.89227 0.40424 0.63135 0.0
C58 C 0.90856 0.36899 0.63051 0.0
C59 C 0.94335 0.36369 0.63828 0.0
C60 C 0.96175 0.39366 0.64682 0.0
C61 C 0.94543 0.42885 0.64771 0.0
C62 C 0.91070 0.43414 0.63996 0.0
C63 C 0.00600 0.35186 0.65524 0.0
C64 C 0.03860 0.35276 0.66579 0.0
C65 C 0.07001 0.35976 0.65561 0.0
C66 C 0.10142 0.36718 0.66657 0.0
C67 C 0.10232 0.36351 0.68748 0.0
C68 C 0.07145 0.35329 0.69749 0.0
C69 C 0.03953 0.34798 0.68662 0.0
C70 C 0.00803 0.34056 0.69672 0.0
C71 C 0.06936 0.36215 0.63463 0.0
C72 C 0.13380 0.37126 0.69836 0.0
C73 C 0.13190 0.37872 0.65672 0.0
C74 C 0.16628 0.42896 0.65300 0.0
C75 C 0.18814 0.40502 0.64224 0.0
C76 C 0.22099 0.41763 0.63543 0.0
C77 C 0.23192 0.45415 0.63940 0.0
C78 C 0.20991 0.47818 0.65005 0.0
C79 C 0.17706 0.46557 0.65685 0.0
C80 C 0.26494 0.46653 0.63272 0.0
C81 C 0.28687 0.44229 0.62216 0.0
C82 C 0.07185 0.35031 0.71839 0.0
C83 C 0.08160 0.30856 0.74297 0.0
C84 C 0.07322 0.33744 0.75602 0.0
C85 C 0.06616 0.32926 0.77606 0.0
C86 C 0.06743 0.29222 0.78297 0.0
C87 C 0.07590 0.26339 0.76990 0.0
C88 C 0.08300 0.27157 0.74988 0.0
C89 C 0.06009 0.28385 0.80293 0.0
C90 C 0.06115 0.24671 0.80964 0.0
O91 O 0.99563 0.38865 0.65463 0.0
O92 O 0.08693 0.31631 0.72316 0.0
O93 O 0.13464 0.41626 0.66017 0.0
H94 H 0.85561 0.46716 0.63088 0.0
H95 H 0.84368 0.38784 0.61719 0.0
H96 H 0.89490 0.34685 0.62415 0.0
H97 H 0.95545 0.33762 0.63770 0.0
H98 H 0.95908 0.45096 0.65412 0.0
H99 H 0.89862 0.46019 0.64057 0.0
H100 H 0.00913 0.34173 0.64090 0.0
H101 H 0.98782 0.33594 0.66298 0.0
H102 H 0.01237 0.34454 0.71193 0.0
H103 H 0.00010 0.31322 0.69423 0.0
H104 H 0.98808 0.35860 0.69144 0.0
H105 H 0.04347 0.36736 0.62943 0.0
H106 H 0.07824 0.33704 0.62890 0.0
H107 H 0.08591 0.38342 0.62997 0.0
H108 H 0.12922 0.36893 0.71356 0.0
H109 H 0.14177 0.39819 0.69499 0.0
H110 H 0.15365 0.35258 0.69449 0.0
H111 H 0.15415 0.36480 0.66268 0.0
H112 H 0.12931 0.37382 0.64149 0.0
H113 H 0.18006 0.37793 0.63938 0.0
H114 H 0.23726 0.39991 0.62749 0.0
H115 H 0.21796 0.50526 0.65292 0.0
H116 H 0.16076 0.48327 0.66481 0.0
H117 H 0.27315 0.49356 0.63561 0.0
H118 H 0.27858 0.41528 0.61929 0.0
H119 H 0.08659 0.37156 0.72490 0.0
H120 H 0.04585 0.35122 0.72333 0.0
H121 H 0.07203 0.36478 0.75082 0.0
H122 H 0.05988 0.35057 0.78577 0.0
H123 H 0.07681 0.23599 0.77505 0.0
H124 H 0.08907 0.25025 0.74015 0.0
H125 H 0.05384 0.30506 0.81271 0.0
H126 H 0.06740 0.22558 0.79982 0.0
C127 C 0.64938 0.84446 0.40566 0.0
C128 C 0.67957 0.86539 0.41090 0.0
C129 C 0.68885 0.89614 0.39908 0.0
C130 C 0.71904 0.91728 0.40411 0.0
C131 C 0.72817 0.94795 0.39215 0.0
C132 C 0.70713 0.95736 0.37521 0.0
C133 C 0.67691 0.93631 0.37022 0.0
C134 C 0.66780 0.90568 0.38215 0.0
C135 C 0.74272 0.00833 0.37184 0.0
C136 C 0.74384 0.03936 0.35909 0.0
C137 C 0.76401 0.03799 0.34181 0.0
C138 C 0.76003 0.06641 0.32739 0.0
C139 C 0.73911 0.09795 0.33124 0.0
C140 C 0.72141 0.10064 0.34937 0.0
C141 C 0.72374 0.07127 0.36330 0.0
C142 C 0.70389 0.07264 0.38076 0.0
C143 C 0.78593 0.00699 0.33828 0.0
C144 C 0.73504 0.12615 0.31667 0.0
C145 C 0.77654 0.06322 0.30899 0.0
C146 C 0.76313 0.05520 0.27650 0.0
C147 C 0.79966 0.06056 0.27384 0.0
C148 C 0.81306 0.06245 0.25449 0.0
C149 C 0.78989 0.05898 0.23784 0.0
C150 C 0.75337 0.05334 0.24051 0.0
C151 C 0.73998 0.05145 0.25986 0.0
C152 C 0.80335 0.06123 0.21852 0.0
C153 C 0.83988 0.06702 0.21596 0.0
C154 C 0.69985 0.13165 0.35320 0.0
C155 C 0.70273 0.18809 0.36687 0.0
C156 C 0.66610 0.19081 0.36240 0.0
C157 C 0.64572 0.21891 0.37107 0.0
C158 C 0.66202 0.24415 0.38424 0.0
C159 C 0.69867 0.24144 0.38866 0.0
C160 C 0.71905 0.21339 0.37996 0.0
C161 C 0.64172 0.27208 0.39309 0.0
C162 C 0.65822 0.29698 0.40635 0.0
O163 O 0.71565 0.98752 0.36355 0.0
O164 O 0.72241 0.15962 0.35911 0.0
O165 O 0.74989 0.05447 0.29541 0.0
H166 H 0.63402 0.85181 0.39308 0.0
H167 H 0.69500 0.85812 0.42348 0.0
H168 H 0.73462 0.91022 0.41665 0.0
H169 H 0.75047 0.96367 0.39585 0.0
H170 H 0.66131 0.94343 0.35770 0.0
H171 H 0.64547 0.89004 0.37846 0.0
H172 H 0.76667 0.99365 0.37194 0.0
H173 H 0.73650 0.01650 0.38619 0.0
H174 H 0.68598 0.09480 0.37970 0.0
H175 H 0.72089 0.07617 0.39308 0.0
H176 H 0.69003 0.04789 0.38234 0.0
H177 H 0.77767 0.98447 0.34682 0.0
H178 H 0.81209 0.01339 0.34229 0.0
H179 H 0.78456 0.00010 0.32323 0.0
H180 H 0.71743 0.14632 0.32159 0.0
H181 H 0.72504 0.11463 0.30352 0.0
H182 H 0.75959 0.13816 0.31404 0.0
H183 H 0.78796 0.08846 0.30510 0.0
H184 H 0.79579 0.04228 0.30961 0.0
H185 H 0.81675 0.06327 0.28619 0.0
H186 H 0.84010 0.06649 0.25249 0.0
H187 H 0.73625 0.05065 0.22817 0.0
H188 H 0.71292 0.04742 0.26188 0.0
H189 H 0.78632 0.05865 0.20613 0.0
H190 H 0.85684 0.06958 0.22838 0.0
H191 H 0.68513 0.13981 0.34052 0.0
H192 H 0.68283 0.12516 0.36471 0.0
H193 H 0.65408 0.17190 0.35277 0.0
H194 H 0.61856 0.22097 0.36782 0.0
H195 H 0.71067 0.26016 0.39841 0.0
H196 H 0.74615 0.21119 0.38330 0.0
H197 H 0.61456 0.27430 0.38987 0.0
H198 H 0.68538 0.29466 0.40954 0.0
C199 C 0.79254 0.65991 0.62035 0.0
C200 C 0.80915 0.63873 0.63573 0.0
C201 C 0.84377 0.64765 0.64236 0.0
C202 C 0.86077 0.62664 0.65770 0.0
C203 C 0.89545 0.63571 0.66420 0.0
C204 C 0.91304 0.66572 0.65533 0.0
C205 C 0.89602 0.68677 0.64006 0.0
C206 C 0.86139 0.67771 0.63356 0.0
C207 C 0.95789 0.65541 0.67855 0.0
C208 C 0.99018 0.67229 0.68378 0.0
C209 C 0.02173 0.66028 0.67509 0.0
C210 C 0.05270 0.68144 0.67762 0.0
C211 C 0.05312 0.71196 0.69055 0.0
C212 C 0.02219 0.72191 0.70059 0.0
C213 C 0.99067 0.70207 0.69717 0.0
C214 C 0.95905 0.71371 0.70600 0.0
C215 C 0.02159 0.62894 0.66269 0.0
C216 C 0.08416 0.73318 0.69289 0.0
C217 C 0.08321 0.67249 0.66707 0.0
C218 C 0.11671 0.69468 0.64246 0.0
C219 C 0.13931 0.66451 0.64735 0.0
C220 C 0.17210 0.66088 0.63796 0.0
C221 C 0.18221 0.68743 0.62370 0.0
C222 C 0.15945 0.71747 0.61870 0.0
C223 C 0.12667 0.72109 0.62810 0.0
C224 C 0.21516 0.68388 0.61448 0.0
C225 C 0.23783 0.65386 0.61961 0.0
C226 C 0.02210 0.75280 0.71321 0.0
C227 C 0.03202 0.76776 0.74519 0.0
C228 C 0.02273 0.80422 0.73930 0.0
C229 C 0.01531 0.83089 0.75380 0.0
C230 C 0.01711 0.82096 0.77414 0.0
C231 C 0.02649 0.78450 0.78000 0.0
C232 C 0.03396 0.75787 0.76551 0.0
C233 C 0.00941 0.84741 0.78869 0.0
C234 C 0.01102 0.83712 0.80897 0.0
O235 O 0.94681 0.67503 0.66174 0.0
O236 O 0.03772 0.74122 0.73101 0.0
O237 O 0.08513 0.69881 0.65208 0.0
H238 H 0.80590 0.68210 0.61395 0.0
H239 H 0.79588 0.61652 0.64217 0.0
H240 H 0.84771 0.60439 0.66422 0.0
H241 H 0.90808 0.62025 0.67556 0.0
H242 H 0.90906 0.70907 0.63357 0.0
H243 H 0.84878 0.69324 0.62223 0.0
H244 H 0.96159 0.62742 0.67535 0.0
H245 H 0.93981 0.65863 0.68991 0.0
H246 H 0.96291 0.73962 0.71243 0.0
H247 H 0.95196 0.69459 0.71694 0.0
H248 H 0.93888 0.71560 0.69510 0.0
H249 H 0.99573 0.62380 0.65759 0.0
H250 H 0.03110 0.60598 0.67085 0.0
H251 H 0.03784 0.63353 0.65061 0.0
H252 H 0.07923 0.75557 0.70215 0.0
H253 H 0.09170 0.74294 0.67897 0.0
H254 H 0.10448 0.71669 0.69915 0.0
H255 H 0.10558 0.67396 0.67649 0.0
H256 H 0.08112 0.64603 0.66105 0.0
H257 H 0.13184 0.64496 0.65797 0.0
H258 H 0.18892 0.63860 0.64159 0.0
H259 H 0.16690 0.73705 0.60809 0.0
H260 H 0.10982 0.74339 0.62448 0.0
H261 H 0.22277 0.70344 0.60389 0.0
H262 H 0.23015 0.63433 0.63019 0.0
H263 H 0.03625 0.77477 0.70716 0.0
H264 H 0.99595 0.76104 0.71552 0.0
H265 H 0.02114 0.81139 0.72423 0.0
H266 H 0.00835 0.85791 0.74949 0.0
H267 H 0.02780 0.77723 0.79507 0.0
H268 H 0.04070 0.73081 0.76981 0.0
H269 H 0.00249 0.87449 0.78446 0.0
H270 H 0.01794 0.81001 0.81313 0.0
C271 C 0.40411 0.77599 0.40364 0.0
C272 C 0.37033 0.79276 0.40468 0.0
C273 C 0.36487 0.82896 0.39707 0.0
C274 C 0.33125 0.84614 0.39805 0.0
C275 C 0.32605 0.88242 0.39044 0.0
C276 C 0.35449 0.90141 0.38189 0.0
C277 C 0.38803 0.88421 0.38085 0.0
C278 C 0.39322 0.84799 0.38846 0.0
C279 C 0.31440 0.94771 0.37376 0.0
C280 C 0.31502 0.98163 0.36333 0.0
C281 C 0.32219 0.01460 0.37363 0.0
C282 C 0.32903 0.04725 0.36277 0.0
C283 C 0.32479 0.04789 0.34186 0.0
C284 C 0.31454 0.01551 0.33176 0.0
C285 C 0.30971 0.98232 0.34251 0.0
C286 C 0.30213 0.94926 0.33231 0.0
C287 C 0.32522 0.01423 0.39460 0.0
C288 C 0.33194 0.08061 0.33109 0.0
C289 C 0.34054 0.07922 0.37271 0.0
C290 C 0.38885 0.11503 0.37645 0.0
C291 C 0.36643 0.13813 0.38736 0.0
C292 C 0.37886 0.17253 0.39427 0.0
C293 C 0.41369 0.18376 0.39026 0.0
C294 C 0.43621 0.16049 0.37946 0.0
C295 C 0.42377 0.12609 0.37255 0.0
C296 C 0.42590 0.21833 0.39704 0.0
C297 C 0.40318 0.24150 0.40775 0.0
C298 C 0.31095 0.01563 0.31086 0.0
C299 C 0.27021 0.02562 0.28642 0.0
C300 C 0.29732 0.01655 0.27326 0.0
C301 C 0.28876 0.00891 0.25320 0.0
C302 C 0.25311 0.01027 0.24639 0.0
C303 C 0.22604 0.01943 0.25957 0.0
C304 C 0.23459 0.02712 0.27960 0.0
C305 C 0.24437 0.00233 0.22641 0.0
C306 C 0.20862 0.00348 0.21980 0.0
O307 O 0.34955 0.93673 0.37423 0.0
O308 O 0.27834 0.03146 0.30623 0.0
O309 O 0.37633 0.08188 0.36918 0.0
H310 H 0.42490 0.79040 0.39724 0.0
H311 H 0.34948 0.77844 0.41107 0.0
H312 H 0.31025 0.83204 0.40442 0.0
H313 H 0.30119 0.89517 0.39113 0.0
H314 H 0.40901 0.89830 0.37445 0.0
H315 H 0.41806 0.83525 0.38773 0.0
H316 H 0.30523 0.95124 0.38813 0.0
H317 H 0.29882 0.92865 0.36597 0.0
H318 H 0.30542 0.95356 0.31709 0.0
H319 H 0.27605 0.94137 0.33483 0.0
H320 H 0.31949 0.92842 0.33745 0.0
H321 H 0.33028 0.98721 0.39968 0.0
H322 H 0.30145 0.02368 0.40043 0.0
H323 H 0.34579 0.03151 0.39927 0.0
H324 H 0.32916 0.07561 0.31587 0.0
H325 H 0.35785 0.08890 0.33443 0.0
H326 H 0.31430 0.10150 0.33509 0.0
H327 H 0.32711 0.10244 0.36687 0.0
H328 H 0.33638 0.07675 0.38795 0.0
H329 H 0.34060 0.12982 0.39025 0.0
H330 H 0.36227 0.18972 0.40232 0.0
H331 H 0.46203 0.16877 0.37655 0.0
H332 H 0.44034 0.10887 0.36449 0.0
H333 H 0.45167 0.22677 0.39412 0.0
H334 H 0.37742 0.23298 0.41065 0.0
H335 H 0.33111 0.03086 0.30436 0.0
H336 H 0.31155 0.98836 0.30581 0.0
H337 H 0.32365 0.01528 0.27839 0.0
H338 H 0.30878 0.00212 0.24342 0.0
H339 H 0.19966 0.02041 0.25449 0.0
H340 H 0.21458 0.03369 0.28941 0.0
H341 H 0.26428 0.99558 0.21656 0.0
H342 H 0.18879 0.01024 0.22970 0.0
H343 H 0.67659 0.52574 0.53915 0.0
H344 H 0.81503 0.48307 0.60437 0.0
H345 H 0.75807 0.47606 0.61474 0.0
H346 H 0.76903 0.49711 0.58292 0.0
H347 H 0.71050 0.49039 0.59285 0.0
H348 H 0.72225 0.51137 0.56111 0.0
H349 H 0.66427 0.50507 0.57040 0.0
H350 H 0.67663 0.48284 0.53122 0.0
H351 H 0.81506 0.44016 0.59644 0.0
H352 H 0.75811 0.43316 0.60681 0.0
H353 H 0.76906 0.45420 0.57498 0.0
H354 H 0.71054 0.44748 0.58491 0.0
H355 H 0.72228 0.46847 0.55317 0.0
H356 H 0.66431 0.46217 0.56247 0.0
C357 C 0.66611 0.50041 0.54102 0.0
C358 C 0.80548 0.45745 0.60667 0.0
C359 C 0.76807 0.45866 0.60468 0.0
C360 C 0.75908 0.47161 0.58504 0.0
C361 C 0.72061 0.47295 0.58284 0.0
C362 C 0.71206 0.48595 0.56311 0.0
C363 C 0.67451 0.48759 0.56047 0.0
H364 H 0.56449 0.48196 0.45327 0.0
H365 H 0.63446 0.33967 0.39886 0.0
H366 H 0.66294 0.35670 0.42781 0.0
H367 H 0.61154 0.38670 0.41698 0.0
H368 H 0.63970 0.40501 0.44660 0.0
H369 H 0.58825 0.43453 0.43540 0.0
H370 H 0.61531 0.45327 0.46465 0.0
H371 H 0.54086 0.45198 0.46572 0.0
H372 H 0.61082 0.30969 0.41132 0.0
H373 H 0.63931 0.32672 0.44027 0.0
H374 H 0.58791 0.35673 0.42943 0.0
H375 H 0.61606 0.37504 0.45905 0.0
H376 H 0.56462 0.40456 0.44786 0.0
H377 H 0.59168 0.42330 0.47711 0.0
C378 C 0.56397 0.46573 0.46552 0.0
C379 C 0.63439 0.32249 0.41075 0.0
C380 C 0.63955 0.34349 0.42821 0.0
C381 C 0.61129 0.36993 0.42903 0.0
C382 C 0.61636 0.39170 0.44695 0.0
C383 C 0.58788 0.41801 0.44755 0.0
C384 C 0.59206 0.43981 0.46496 0.0
H385 H 0.42666 0.62452 0.54176 0.0
H386 H 0.28959 0.67678 0.60129 0.0
H387 H 0.28094 0.62914 0.57948 0.0
H388 H 0.33476 0.65927 0.58152 0.0
H389 H 0.32714 0.61082 0.55907 0.0
H390 H 0.38067 0.64144 0.56143 0.0
H391 H 0.37407 0.59383 0.53914 0.0
H392 H 0.44064 0.59477 0.55895 0.0
H393 H 0.30357 0.64703 0.61847 0.0
H394 H 0.29492 0.59939 0.59667 0.0
H395 H 0.34873 0.62952 0.59871 0.0
H396 H 0.34112 0.58107 0.57625 0.0
H397 H 0.39465 0.61169 0.57861 0.0
H398 H 0.38805 0.56408 0.55633 0.0
C399 C 0.42519 0.59811 0.54662 0.0
C400 C 0.28722 0.65073 0.60654 0.0
C401 C 0.29692 0.62562 0.59159 0.0
C402 C 0.33276 0.63305 0.58661 0.0
C403 C 0.34300 0.60734 0.57122 0.0
C404 C 0.37892 0.61514 0.56641 0.0
C405 C 0.38979 0.59039 0.55135 0.0
H406 H 0.56634 0.68248 0.49433 0.0
H407 H 0.61992 0.82518 0.43355 0.0
H408 H 0.65883 0.77768 0.44097 0.0
H409 H 0.60247 0.77783 0.45365 0.0
H410 H 0.64127 0.72880 0.46162 0.0
H411 H 0.58474 0.72968 0.47408 0.0
H412 H 0.62229 0.68094 0.48223 0.0
H413 H 0.55160 0.65988 0.47475 0.0
H414 H 0.60518 0.80258 0.41397 0.0
H415 H 0.64410 0.75508 0.42140 0.0
H416 H 0.58773 0.75523 0.43407 0.0
H417 H 0.62653 0.70620 0.44204 0.0
H418 H 0.57000 0.70708 0.45450 0.0
H419 H 0.60755 0.65834 0.46265 0.0
C420 C 0.57257 0.66361 0.48406 0.0
C421 C 0.62650 0.80726 0.42287 0.0
C422 C 0.63764 0.77342 0.43191 0.0
C423 C 0.60891 0.75950 0.44314 0.0
C424 C 0.62012 0.72465 0.45250 0.0
C425 C 0.59109 0.71110 0.46367 0.0
C426 C 0.60121 0.67693 0.47305 0.0
H427 H 0.45043 0.43255 0.48477 0.0
H428 H 0.38856 0.29487 0.42312 0.0
H429 H 0.43854 0.32642 0.41465 0.0
H430 H 0.40926 0.34047 0.44341 0.0
H431 H 0.46014 0.37338 0.43537 0.0
H432 H 0.43032 0.38684 0.46403 0.0
H433 H 0.48037 0.41981 0.45656 0.0
H434 H 0.47501 0.40196 0.49718 0.0
H435 H 0.41314 0.26428 0.43552 0.0
H436 H 0.46313 0.29583 0.42706 0.0
H437 H 0.43384 0.30988 0.45581 0.0
H438 H 0.48473 0.34279 0.44777 0.0
H439 H 0.45490 0.35625 0.47644 0.0
H440 H 0.50495 0.38922 0.46897 0.0
C441 C 0.47452 0.42043 0.48585 0.0
C442 C 0.41223 0.28183 0.42378 0.0
C443 C 0.43925 0.30848 0.42622 0.0
C444 C 0.43312 0.32782 0.44424 0.0
C445 C 0.46081 0.35533 0.44689 0.0
C446 C 0.45428 0.37443 0.46498 0.0
C447 C 0.48098 0.40163 0.46802 0.0
H448 H 0.47021 0.51453 0.57804 0.0
H449 H 0.32771 0.45964 0.63282 0.0
H450 H 0.31746 0.49210 0.60374 0.0
H451 H 0.37466 0.47794 0.61458 0.0
H452 H 0.36547 0.51110 0.58483 0.0
H453 H 0.42238 0.49655 0.59603 0.0
H454 H 0.41429 0.52925 0.56665 0.0
H455 H 0.46851 0.47544 0.56575 0.0
H456 H 0.32601 0.42055 0.62054 0.0
H457 H 0.31576 0.45301 0.59146 0.0
H458 H 0.37296 0.43885 0.60230 0.0
H459 H 0.36378 0.47201 0.57254 0.0
H460 H 0.42069 0.45746 0.58374 0.0
H461 H 0.41259 0.49016 0.55436 0.0
C462 C 0.46021 0.50201 0.56585 0.0
C463 C 0.31676 0.44675 0.62100 0.0
C464 C 0.32632 0.46573 0.60345 0.0
C465 C 0.36410 0.46521 0.60260 0.0
C466 C 0.37422 0.48469 0.58458 0.0
C467 C 0.41208 0.48391 0.58395 0.0
C468 C 0.42288 0.50280 0.56644 0.0
H469 H 0.51484 0.63775 0.47580 0.0
H470 H 0.42973 0.77150 0.41800 0.0
H471 H 0.44284 0.71551 0.40410 0.0
H472 H 0.45788 0.72705 0.43699 0.0
H473 H 0.47178 0.66954 0.42344 0.0
H474 H 0.48651 0.68185 0.45628 0.0
H475 H 0.50060 0.62488 0.44342 0.0
H476 H 0.47630 0.62167 0.48258 0.0
H477 H 0.39119 0.75543 0.42478 0.0
H478 H 0.40430 0.69944 0.41088 0.0
H479 H 0.41934 0.71098 0.44376 0.0
H480 H 0.43324 0.65346 0.43022 0.0
H481 H 0.44797 0.66577 0.46306 0.0
H482 H 0.46206 0.60881 0.45020 0.0
C483 C 0.49568 0.61929 0.47266 0.0
C484 C 0.41000 0.75394 0.41447 0.0
C485 C 0.42379 0.71740 0.41426 0.0
C486 C 0.43839 0.70910 0.43362 0.0
C487 C 0.45266 0.67153 0.43355 0.0
C488 C 0.46717 0.66367 0.45302 0.0
C489 C 0.48139 0.62700 0.45346 0.0
H490 H 0.62702 0.59280 0.54709 0.0
H491 H 0.77245 0.66357 0.59726 0.0
H492 H 0.71809 0.66721 0.61155 0.0
H493 H 0.72416 0.64025 0.58079 0.0
H494 H 0.66819 0.64334 0.59480 0.0
H495 H 0.67505 0.61654 0.56406 0.0
H496 H 0.61953 0.61912 0.57742 0.0
H497 H 0.63415 0.55234 0.55796 0.0
H498 H 0.77958 0.62311 0.60813 0.0
H499 H 0.72521 0.62674 0.62242 0.0
H500 H 0.73129 0.59979 0.59166 0.0
H501 H 0.67532 0.60288 0.60567 0.0
H502 H 0.68218 0.57607 0.57493 0.0
H503 H 0.62665 0.57866 0.58829 0.0
C504 C 0.62115 0.57669 0.55884 0.0
C505 C 0.76755 0.64794 0.60934 0.0
C506 C 0.73055 0.64258 0.61047 0.0
C507 C 0.71883 0.62441 0.59274 0.0
C508 C 0.68077 0.61877 0.59376 0.0
C509 C 0.66947 0.60058 0.57592 0.0
C510 C 0.63224 0.59462 0.57644 0.0
C511 C 0.93727 0.04867 0.10243 0.0
C512 C 0.91669 0.04586 0.08471 0.0
C513 C 0.93345 0.04230 0.06632 0.0
C514 C 0.97078 0.04153 0.06565 0.0
C515 C 0.99134 0.04432 0.08338 0.0
C516 C 0.97458 0.04789 0.10176 0.0
C517 C 0.92064 0.05231 0.12085 0.0
C518 C 0.90423 0.05597 0.13932 0.0
C519 C 0.88801 0.05966 0.15786 0.0
C520 C 0.85073 0.06067 0.15890 0.0
C521 C 0.83463 0.06446 0.17747 0.0
C522 C 0.85580 0.06719 0.19498 0.0
C523 C 0.89307 0.06617 0.19393 0.0
C524 C 0.90916 0.06240 0.17537 0.0
H525 H 0.88906 0.04645 0.08520 0.0
H526 H 0.91823 0.04024 0.05320 0.0
H527 H 0.01897 0.04373 0.08289 0.0
H528 H 0.98980 0.04996 0.11488 0.0
H529 H 0.83507 0.05865 0.14593 0.0
H530 H 0.80704 0.06517 0.17825 0.0
H531 H 0.90874 0.06819 0.20689 0.0
H532 H 0.93676 0.06161 0.17459 0.0
C533 C 0.03538 0.13386 0.92126 0.0
C534 C 0.00213 0.13148 0.93027 0.0
C535 C 0.99883 0.11150 0.94826 0.0
C536 C 0.02878 0.09392 0.95724 0.0
C537 C 0.06201 0.09633 0.94822 0.0
C538 C 0.06531 0.11629 0.93024 0.0
C539 C 0.03880 0.15373 0.90325 0.0
C540 C 0.04246 0.17354 0.88525 0.0
C541 C 0.04632 0.19328 0.86724 0.0
C542 C 0.01674 0.21094 0.85792 0.0
C543 C 0.02071 0.23058 0.83988 0.0
C544 C 0.05427 0.23257 0.83117 0.0
C545 C 0.08383 0.21491 0.84049 0.0
C546 C 0.07985 0.19526 0.85852 0.0
H547 H 0.97996 0.14447 0.92362 0.0
H548 H 0.97422 0.10972 0.95493 0.0
H549 H 0.08419 0.08334 0.95487 0.0
H550 H 0.08992 0.11806 0.92356 0.0
H551 H 0.99191 0.20946 0.86437 0.0
H552 H 0.99884 0.24370 0.83299 0.0
H553 H 0.10866 0.21638 0.83404 0.0
H554 H 0.10174 0.18222 0.86543 0.0
C555 C 0.11309 0.01757 0.10414 0.0
C556 C 0.13194 0.03095 0.08774 0.0
C557 C 0.11488 0.03431 0.06889 0.0
C558 C 0.07897 0.02432 0.06645 0.0
C559 C 0.06014 0.01097 0.08285 0.0
C560 C 0.07720 0.00760 0.10168 0.0
C561 C 0.13006 0.01409 0.12300 0.0
C562 C 0.14682 0.01051 0.14192 0.0
C563 C 0.16340 0.00683 0.16087 0.0
C564 C 0.19932 0.01647 0.16367 0.0
C565 C 0.21582 0.01266 0.18266 0.0
C566 C 0.19638 0.99990 0.19883 0.0
C567 C 0.16046 0.98960 0.19601 0.0
C568 C 0.14398 0.99340 0.17704 0.0
H569 H 0.15853 0.03833 0.08955 0.0
H570 H 0.12883 0.04420 0.05675 0.0
H571 H 0.03356 0.00359 0.08104 0.0
H572 H 0.06326 0.99770 0.11383 0.0
H573 H 0.21370 0.02640 0.15171 0.0
H574 H 0.24240 0.01983 0.18475 0.0
H575 H 0.14608 0.97966 0.20798 0.0
H576 H 0.11738 0.98631 0.17495 0.0
C577 C 0.01775 0.94562 0.92059 0.0
C578 C 0.98698 0.95261 0.93146 0.0
C579 C 0.98980 0.96924 0.95031 0.0
C580 C 0.02338 0.97890 0.95829 0.0
C581 C 0.05412 0.97192 0.94742 0.0
C582 C 0.05130 0.95530 0.92857 0.0
C583 C 0.01508 0.92894 0.90176 0.0
C584 C 0.01265 0.91225 0.88292 0.0
C585 C 0.01043 0.89555 0.86408 0.0
C586 C 0.97718 0.88548 0.85582 0.0
C587 C 0.97511 0.86871 0.83699 0.0
C588 C 0.00628 0.86203 0.82641 0.0
C589 C 0.03952 0.87211 0.83467 0.0
C590 C 0.04159 0.88887 0.85350 0.0
H591 H 0.96213 0.94544 0.92555 0.0
H592 H 0.96703 0.97439 0.95836 0.0
H593 H 0.07897 0.97909 0.95331 0.0
H594 H 0.07407 0.95012 0.92053 0.0
H595 H 0.95412 0.89042 0.86365 0.0
H596 H 0.95050 0.86128 0.83086 0.0
H597 H 0.06258 0.86718 0.82684 0.0
H598 H 0.06619 0.89637 0.85961 0.0
