data_{}
_symmetry_space_group_name_H-M    P1
_symmetry_Int_Tables_number       1
_symmetry_cell_setting            triclinic
loop_
_symmetry_equiv_pos_as_xyz
'x, y, z'
_cell_length_a     66.647
_cell_length_b     42.777
_cell_length_c     39.071
_cell_angle_alpha  91.981
_cell_angle_beta   90.286
_cell_angle_gamma  89.084
loop_
_atom_site_label
_atom_site_type_symbol
_atom_site_fract_x
_atom_site_fract_y
_atom_site_fract_z
_atom_type_partial_charge
C0 C 0.98113 0.00971 0.03125 0.0
C1 C 0.98808 0.97519 0.03056 0.0
C2 C 0.01064 0.96684 0.03059 0.0
C3 C 0.02625 0.99301 0.03132 0.0
C4 C 0.01930 0.02753 0.03201 0.0
C5 C 0.99674 0.03588 0.03198 0.0
H6 H 0.99159 0.06144 0.03249 0.0
H7 H 0.01578 0.94128 0.03008 0.0
H8 H 0.57972 0.55281 0.64074 0.0
H9 H 0.56285 0.53016 0.59391 0.0
H10 H 0.57964 0.47645 0.69457 0.0
H11 H 0.42378 0.44047 0.61958 0.0
H12 H 0.44234 0.46726 0.57985 0.0
H13 H 0.42148 0.51101 0.68732 0.0
H14 H 0.47600 0.63348 0.44263 0.0
H15 H 0.47652 0.59406 0.48244 0.0
H16 H 0.44345 0.58599 0.37478 0.0
H17 H 0.53524 0.37873 0.42223 0.0
H18 H 0.53303 0.41401 0.46899 0.0
H19 H 0.57017 0.43204 0.36851 0.0
H20 H 0.42765 0.44993 0.42186 0.0
H21 H 0.44452 0.47258 0.46868 0.0
H22 H 0.42773 0.52629 0.36802 0.0
H23 H 0.58359 0.56227 0.44301 0.0
H24 H 0.56503 0.53548 0.48274 0.0
H25 H 0.58589 0.49173 0.37527 0.0
H26 H 0.53138 0.36927 0.61996 0.0
H27 H 0.53086 0.40869 0.58016 0.0
H28 H 0.56392 0.41675 0.68781 0.0
H29 H 0.47213 0.62401 0.64036 0.0
H30 H 0.47434 0.58873 0.59360 0.0
H31 H 0.43720 0.57071 0.69408 0.0
H32 H 0.51589 0.49016 0.58298 0.0
H33 H 0.48947 0.50764 0.58289 0.0
H34 H 0.49149 0.51258 0.47961 0.0
H35 H 0.51791 0.49510 0.47970 0.0
H36 H 0.56581 0.46026 0.53151 0.0
H37 H 0.44156 0.54248 0.53108 0.0
C38 C 0.58192 0.51855 0.67321 0.0
C39 C 0.57615 0.53152 0.64259 0.0
C40 C 0.56611 0.51904 0.61392 0.0
C41 C 0.56150 0.48793 0.61896 0.0
C42 C 0.56625 0.47163 0.64833 0.0
C43 C 0.57633 0.48749 0.67455 0.0
C44 C 0.42020 0.47134 0.65790 0.0
C45 C 0.42720 0.46137 0.62594 0.0
C46 C 0.43827 0.47640 0.60131 0.0
C47 C 0.44257 0.50672 0.61282 0.0
C48 C 0.43662 0.52010 0.64431 0.0
C49 C 0.42561 0.50195 0.66587 0.0
C50 C 0.46005 0.61553 0.40424 0.0
C51 C 0.46907 0.61490 0.43627 0.0
C52 C 0.46980 0.59206 0.46094 0.0
C53 C 0.45932 0.56583 0.44940 0.0
C54 C 0.44949 0.56288 0.41786 0.0
C55 C 0.45017 0.58788 0.39626 0.0
C56 C 0.55258 0.40007 0.38982 0.0
C57 C 0.54233 0.39770 0.42039 0.0
C58 C 0.54056 0.41799 0.44902 0.0
C59 C 0.55137 0.44501 0.44400 0.0
C60 C 0.56238 0.45087 0.41468 0.0
C61 C 0.56263 0.42817 0.38850 0.0
C62 C 0.42545 0.48419 0.38938 0.0
C63 C 0.43123 0.47123 0.42001 0.0
C64 C 0.44126 0.48371 0.44867 0.0
C65 C 0.44588 0.51482 0.44363 0.0
C66 C 0.44112 0.53111 0.41426 0.0
C67 C 0.43104 0.51525 0.38804 0.0
C68 C 0.58717 0.53141 0.40469 0.0
C69 C 0.58018 0.54138 0.43666 0.0
C70 C 0.56910 0.52634 0.46128 0.0
C71 C 0.56481 0.49603 0.44977 0.0
C72 C 0.57075 0.48265 0.41828 0.0
C73 C 0.58177 0.50079 0.39672 0.0
C74 C 0.54732 0.38721 0.65835 0.0
C75 C 0.53830 0.38784 0.62632 0.0
C76 C 0.53757 0.41069 0.60165 0.0
C77 C 0.54806 0.43691 0.61319 0.0
C78 C 0.55788 0.43986 0.64473 0.0
C79 C 0.55720 0.41487 0.66633 0.0
C80 C 0.45479 0.60268 0.67277 0.0
C81 C 0.46504 0.60504 0.64220 0.0
C82 C 0.46681 0.58475 0.61357 0.0
C83 C 0.45601 0.55773 0.61859 0.0
C84 C 0.44499 0.55187 0.64791 0.0
C85 C 0.44474 0.57457 0.67409 0.0
C86 C 0.54221 0.47402 0.56195 0.0
C87 C 0.52287 0.48681 0.56198 0.0
C88 C 0.46397 0.52580 0.56168 0.0
C89 C 0.48330 0.51300 0.56184 0.0
C90 C 0.46516 0.52872 0.50064 0.0
C91 C 0.48450 0.51593 0.50061 0.0
C92 C 0.54340 0.47695 0.50091 0.0
C93 C 0.52407 0.48975 0.50075 0.0
C94 C 0.55263 0.46898 0.53147 0.0
C95 C 0.51370 0.49474 0.53133 0.0
C96 C 0.45474 0.53376 0.53113 0.0
C97 C 0.49367 0.50800 0.53126 0.0
N98 N 0.55121 0.46598 0.59627 0.0
N99 N 0.45363 0.53055 0.59593 0.0
N100 N 0.45617 0.53676 0.46632 0.0
N101 N 0.55374 0.47219 0.46666 0.0
C102 C 0.30672 0.47406 0.27085 0.0
C103 C 0.31354 0.44557 0.24842 0.0
C104 C 0.30082 0.43512 0.21720 0.0
C105 C 0.30740 0.40660 0.19457 0.0
C106 C 0.29454 0.39628 0.16344 0.0
C107 C 0.27512 0.41447 0.15508 0.0
C108 C 0.26859 0.44302 0.17762 0.0
C109 C 0.28143 0.45332 0.20870 0.0
C110 C 0.27261 0.37966 0.10226 0.0
C111 C 0.25858 0.37695 0.07111 0.0
C112 C 0.24035 0.35544 0.07193 0.0
C113 C 0.22430 0.35746 0.04366 0.0
C114 C 0.22767 0.37799 0.01263 0.0
C115 C 0.24691 0.39722 0.01036 0.0
C116 C 0.26237 0.39673 0.03969 0.0
C117 C 0.28079 0.41795 0.03884 0.0
C118 C 0.23737 0.33399 0.10237 0.0
C119 C 0.21144 0.38007 0.98458 0.0
C120 C 0.20471 0.33934 0.04648 0.0
C121 C 0.16857 0.34835 0.05562 0.0
C122 C 0.16699 0.31283 0.04877 0.0
C123 C 0.14624 0.29759 0.04661 0.0
C124 C 0.12711 0.31790 0.05131 0.0
C125 C 0.12870 0.35340 0.05845 0.0
C126 C 0.14945 0.36864 0.06060 0.0
C127 C 0.10639 0.30259 0.04879 0.0
C128 C 0.10492 0.26710 0.04149 0.0
C129 C 0.25023 0.41835 0.97991 0.0
C130 C 0.26519 0.41708 0.92265 0.0
C131 C 0.25891 0.45181 0.92148 0.0
C132 C 0.26761 0.47241 0.89383 0.0
C133 C 0.28260 0.45824 0.86751 0.0
C134 C 0.28882 0.42348 0.86867 0.0
C135 C 0.28010 0.40288 0.89627 0.0
C136 C 0.29149 0.47878 0.84002 0.0
C137 C 0.30660 0.46442 0.81403 0.0
O138 O 0.26257 0.40478 0.12448 0.0
O139 O 0.25748 0.39727 0.95069 0.0
O140 O 0.18884 0.36338 0.05660 0.0
H141 H 0.29231 0.48731 0.26425 0.0
H142 H 0.32794 0.43225 0.25492 0.0
H143 H 0.32177 0.39314 0.20086 0.0
H144 H 0.29938 0.37522 0.14662 0.0
H145 H 0.25424 0.45652 0.17127 0.0
H146 H 0.27659 0.47442 0.22545 0.0
H147 H 0.27365 0.35665 0.11609 0.0
H148 H 0.28811 0.38736 0.09406 0.0
H149 H 0.27891 0.43501 0.01724 0.0
H150 H 0.29494 0.40306 0.03440 0.0
H151 H 0.28208 0.43156 0.06435 0.0
H152 H 0.24650 0.34304 0.12529 0.0
H153 H 0.24273 0.30927 0.09478 0.0
H154 H 0.22082 0.33351 0.10947 0.0
H155 H 0.21613 0.39756 0.96488 0.0
H156 H 0.19666 0.38814 0.99682 0.0
H157 H 0.20943 0.35607 0.97150 0.0
H158 H 0.20081 0.32781 0.02061 0.0
H159 H 0.20617 0.32094 0.06681 0.0
H160 H 0.18118 0.29786 0.04514 0.0
H161 H 0.14504 0.27130 0.04145 0.0
H162 H 0.11453 0.36841 0.06206 0.0
H163 H 0.15068 0.39495 0.06574 0.0
H164 H 0.09216 0.31750 0.05228 0.0
H165 H 0.11917 0.25225 0.03803 0.0
H166 H 0.23574 0.43097 0.97248 0.0
H167 H 0.26225 0.43615 0.98698 0.0
H168 H 0.24795 0.46227 0.94119 0.0
H169 H 0.26302 0.49816 0.89292 0.0
H170 H 0.29993 0.41306 0.84915 0.0
H171 H 0.28479 0.37720 0.89732 0.0
H172 H 0.28694 0.50454 0.83894 0.0
H173 H 0.31111 0.43866 0.81521 0.0
C174 C 0.59102 0.20302 0.80490 0.0
C175 C 0.58440 0.17484 0.82533 0.0
C176 C 0.59696 0.16452 0.85625 0.0
C177 C 0.59057 0.13631 0.87688 0.0
C178 C 0.60327 0.12611 0.90773 0.0
C179 C 0.62234 0.14412 0.91781 0.0
C180 C 0.62868 0.17236 0.89726 0.0
C181 C 0.61600 0.18253 0.86646 0.0
C182 C 0.62483 0.10978 0.96849 0.0
C183 C 0.63859 0.10719 0.99990 0.0
C184 C 0.65714 0.08540 0.99821 0.0
C185 C 0.67288 0.08747 0.02707 0.0
C186 C 0.66890 0.10837 0.05931 0.0
C187 C 0.64935 0.12791 0.06224 0.0
C188 C 0.63420 0.12735 0.03245 0.0
C189 C 0.61545 0.14885 0.03411 0.0
C190 C 0.66074 0.06359 0.96650 0.0
C191 C 0.68482 0.11050 0.08795 0.0
C192 C 0.69276 0.06904 0.02366 0.0
C193 C 0.72887 0.07744 0.01613 0.0
C194 C 0.73090 0.04196 0.02077 0.0
C195 C 0.75185 0.02643 0.02256 0.0
C196 C 0.77074 0.04642 0.01969 0.0
C197 C 0.76869 0.08190 0.01476 0.0
C198 C 0.74774 0.09741 0.01298 0.0
C199 C 0.79166 0.03084 0.02183 0.0
C200 C 0.79357 0.99538 0.02692 0.0
C201 C 0.64541 0.14940 0.09395 0.0
C202 C 0.62989 0.14892 0.15070 0.0
C203 C 0.63565 0.18358 0.15426 0.0
C204 C 0.62637 0.20460 0.18297 0.0
C205 C 0.61132 0.19090 0.20796 0.0
C206 C 0.60563 0.15621 0.20442 0.0
C207 C 0.61492 0.13519 0.17576 0.0
C208 C 0.60185 0.21186 0.23650 0.0
C209 C 0.58670 0.19797 0.26115 0.0
O210 O 0.63473 0.13455 0.94815 0.0
O211 O 0.63818 0.12871 0.12163 0.0
O212 O 0.70838 0.09276 0.01552 0.0
H213 H 0.60517 0.21614 0.81275 0.0
H214 H 0.57026 0.16166 0.81757 0.0
H215 H 0.57646 0.12298 0.86934 0.0
H216 H 0.59857 0.10528 0.92308 0.0
H217 H 0.64276 0.18572 0.90487 0.0
H218 H 0.62070 0.20340 0.85119 0.0
H219 H 0.62427 0.08664 0.95317 0.0
H220 H 0.60913 0.11779 0.97674 0.0
H221 H 0.61687 0.16610 0.05685 0.0
H222 H 0.60147 0.13420 0.03721 0.0
H223 H 0.61421 0.16222 0.00943 0.0
H224 H 0.65171 0.07255 0.94389 0.0
H225 H 0.65567 0.03901 0.97237 0.0
H226 H 0.67737 0.06280 0.95984 0.0
H227 H 0.67967 0.12827 0.10863 0.0
H228 H 0.69960 0.11824 0.07665 0.0
H229 H 0.68704 0.08660 0.09957 0.0
H230 H 0.69658 0.05770 0.04891 0.0
H231 H 0.69178 0.05044 0.00213 0.0
H232 H 0.71689 0.02722 0.02304 0.0
H233 H 0.75339 0.00010 0.02608 0.0
H234 H 0.78268 0.09667 0.01251 0.0
H235 H 0.74618 0.12370 0.00947 0.0
H236 H 0.80570 0.04552 0.01969 0.0
H237 H 0.77950 0.98077 0.02904 0.0
H238 H 0.65964 0.16189 0.10260 0.0
H239 H 0.63320 0.16731 0.08766 0.0
H240 H 0.64666 0.19370 0.13552 0.0
H241 H 0.63057 0.23030 0.18564 0.0
H242 H 0.59448 0.14613 0.22296 0.0
H243 H 0.61063 0.10956 0.17294 0.0
H244 H 0.60601 0.23757 0.23934 0.0
H245 H 0.58257 0.17225 0.25821 0.0
C246 C 0.41717 0.80176 0.25779 0.0
C247 C 0.40372 0.78041 0.23531 0.0
C248 C 0.39245 0.79391 0.20453 0.0
C249 C 0.37887 0.77288 0.18186 0.0
C250 C 0.36762 0.78665 0.15116 0.0
C251 C 0.36994 0.82139 0.14326 0.0
C252 C 0.38355 0.84237 0.16585 0.0
C253 C 0.39479 0.82863 0.19650 0.0
C254 C 0.34908 0.81041 0.09071 0.0
C255 C 0.34176 0.82890 0.05998 0.0
C256 C 0.32134 0.84608 0.06145 0.0
C257 C 0.31588 0.86936 0.03364 0.0
C258 C 0.32962 0.87253 0.00240 0.0
C259 C 0.34916 0.85298 0.99990 0.0
C260 C 0.35525 0.83118 0.02833 0.0
C261 C 0.37559 0.81360 0.02684 0.0
C262 C 0.30724 0.84198 0.09210 0.0
C263 C 0.32412 0.89609 0.97481 0.0
C264 C 0.29683 0.88985 0.03714 0.0
C265 C 0.28640 0.94479 0.04728 0.0
C266 C 0.26507 0.93266 0.04067 0.0
C267 C 0.24725 0.95591 0.03920 0.0
C268 C 0.25080 0.99125 0.04435 0.0
C269 C 0.27213 0.00334 0.05126 0.0
C270 C 0.28995 0.98009 0.05271 0.0
C271 C 0.23296 0.01442 0.04253 0.0
C272 C 0.21169 0.00215 0.03547 0.0
C273 C 0.36323 0.85647 0.96879 0.0
C274 C 0.36952 0.83418 0.91109 0.0
C275 C 0.38708 0.85703 0.90991 0.0
C276 C 0.40313 0.85272 0.88189 0.0
C277 C 0.40159 0.82551 0.85521 0.0
C278 C 0.38399 0.80273 0.85638 0.0
C279 C 0.36793 0.80707 0.88435 0.0
C280 C 0.41769 0.82090 0.82735 0.0
C281 C 0.41609 0.79346 0.80099 0.0
O282 O 0.35918 0.83498 0.11309 0.0
O283 O 0.35435 0.83742 0.93947 0.0
O284 O 0.30391 0.92212 0.04759 0.0
H285 H 0.41875 0.82744 0.25155 0.0
H286 H 0.40209 0.75471 0.24147 0.0
H287 H 0.37715 0.74717 0.18780 0.0
H288 H 0.35759 0.77114 0.13431 0.0
H289 H 0.38530 0.86806 0.15984 0.0
H290 H 0.40484 0.84414 0.21327 0.0
H291 H 0.33596 0.79982 0.10463 0.0
H292 H 0.36034 0.79147 0.08200 0.0
H293 H 0.38494 0.82291 0.00519 0.0
H294 H 0.37305 0.78751 0.02205 0.0
H295 H 0.38382 0.81750 0.05223 0.0
H296 H 0.31622 0.83291 0.11470 0.0
H297 H 0.29520 0.82436 0.08449 0.0
H298 H 0.29974 0.86531 0.09968 0.0
H299 H 0.33654 0.89627 0.95488 0.0
H300 H 0.32233 0.92039 0.98744 0.0
H301 H 0.30938 0.88914 0.96192 0.0
H302 H 0.28868 0.89049 0.01144 0.0
H303 H 0.28652 0.88059 0.05752 0.0
H304 H 0.26250 0.90649 0.03671 0.0
H305 H 0.23145 0.94699 0.03423 0.0
H306 H 0.27473 0.02950 0.05520 0.0
H307 H 0.30577 0.98899 0.05768 0.0
H308 H 0.23548 0.04062 0.04635 0.0
H309 H 0.20921 0.97595 0.03167 0.0
H310 H 0.36442 0.88200 0.96171 0.0
H311 H 0.37873 0.84667 0.97541 0.0
H312 H 0.38826 0.87698 0.92989 0.0
H313 H 0.41618 0.86957 0.88098 0.0
H314 H 0.38289 0.78260 0.83659 0.0
H315 H 0.35496 0.79011 0.88541 0.0
H316 H 0.43077 0.83770 0.82626 0.0
H317 H 0.40300 0.77671 0.80218 0.0
C318 C 0.69980 0.53069 0.79179 0.0
C319 C 0.71378 0.50936 0.81251 0.0
C320 C 0.72516 0.52301 0.84383 0.0
C321 C 0.73925 0.50200 0.86476 0.0
C322 C 0.75062 0.51591 0.89602 0.0
C323 C 0.74789 0.55078 0.90620 0.0
C324 C 0.73376 0.57174 0.88535 0.0
C325 C 0.72241 0.55785 0.85415 0.0
C326 C 0.76942 0.54002 0.95745 0.0
C327 C 0.77678 0.55871 0.98915 0.0
C328 C 0.79695 0.57558 0.98817 0.0
C329 C 0.80236 0.59907 0.01732 0.0
C330 C 0.78888 0.60275 0.04918 0.0
C331 C 0.76964 0.58350 0.05144 0.0
C332 C 0.76358 0.56149 0.02135 0.0
C333 C 0.74351 0.54422 0.02233 0.0
C334 C 0.81080 0.57097 0.95684 0.0
C335 C 0.79433 0.62651 0.07811 0.0
C336 C 0.82108 0.61925 0.01457 0.0
C337 C 0.83063 0.67396 0.00761 0.0
C338 C 0.85219 0.66158 0.01282 0.0
C339 C 0.86970 0.68460 0.01525 0.0
C340 C 0.86561 0.71995 0.01246 0.0
C341 C 0.84404 0.73229 0.00695 0.0
C342 C 0.82653 0.70927 0.00454 0.0
C343 C 0.88314 0.74289 0.01523 0.0
C344 C 0.90464 0.73037 0.02088 0.0
C345 C 0.75583 0.58751 0.08276 0.0
C346 C 0.75043 0.56587 0.13923 0.0
C347 C 0.73256 0.58900 0.14239 0.0
C348 C 0.71685 0.58520 0.17062 0.0
C349 C 0.71904 0.55822 0.19553 0.0
C350 C 0.73695 0.53516 0.19238 0.0
C351 C 0.75267 0.53899 0.16421 0.0
C352 C 0.70328 0.55412 0.22358 0.0
C353 C 0.70553 0.52690 0.24814 0.0
O354 O 0.75875 0.56452 0.93694 0.0
O355 O 0.76527 0.56861 0.11061 0.0
O356 O 0.81344 0.65153 0.00638 0.0
H357 H 0.69792 0.55647 0.79972 0.0
H358 H 0.71570 0.48357 0.80466 0.0
H359 H 0.74128 0.47619 0.85713 0.0
H360 H 0.76103 0.50041 0.91159 0.0
H361 H 0.73170 0.59753 0.89305 0.0
H362 H 0.71198 0.57336 0.83866 0.0
H363 H 0.78255 0.52909 0.94246 0.0
H364 H 0.75851 0.52131 0.96528 0.0
H365 H 0.73423 0.55389 0.04485 0.0
H366 H 0.74646 0.51813 0.02537 0.0
H367 H 0.73496 0.54799 0.99742 0.0
H368 H 0.80172 0.56180 0.93392 0.0
H369 H 0.82316 0.55324 0.96298 0.0
H370 H 0.81789 0.59413 0.95052 0.0
H371 H 0.78209 0.62708 0.09843 0.0
H372 H 0.79564 0.65067 0.06698 0.0
H373 H 0.80928 0.61947 0.09013 0.0
H374 H 0.82947 0.62002 0.04007 0.0
H375 H 0.83132 0.60963 0.99328 0.0
H376 H 0.85518 0.63541 0.01504 0.0
H377 H 0.88568 0.67549 0.01919 0.0
H378 H 0.84103 0.75846 0.00476 0.0
H379 H 0.81054 0.71836 0.00010 0.0
H380 H 0.88020 0.76909 0.01315 0.0
H381 H 0.90753 0.70416 0.02294 0.0
H382 H 0.75436 0.61314 0.09151 0.0
H383 H 0.74041 0.57786 0.07597 0.0
H384 H 0.73090 0.60878 0.12372 0.0
H385 H 0.70357 0.60226 0.17300 0.0
H386 H 0.73852 0.51520 0.21086 0.0
H387 H 0.76587 0.52183 0.16168 0.0
H388 H 0.68998 0.57113 0.22612 0.0
H389 H 0.71885 0.50995 0.24550 0.0
C390 C 0.03517 0.08769 0.05492 0.0
C391 C 0.04458 0.10966 0.02998 0.0
C392 C 0.05433 0.13701 0.04906 0.0
C393 C 0.08127 0.20886 0.01661 0.0
C394 C 0.07388 0.18593 0.04144 0.0
C395 C 0.06286 0.15959 0.02423 0.0
N396 N 0.02535 0.06240 0.03718 0.0
H397 H 0.01219 0.06462 0.03242 0.0
N398 N 0.09173 0.23458 0.03321 0.0
H399 H 0.10519 0.23335 0.03479 0.0
H400 H 0.04552 0.07941 0.06976 0.0
H401 H 0.02551 0.09928 0.06911 0.0
H402 H 0.05459 0.09830 0.01635 0.0
H403 H 0.03432 0.11746 0.01464 0.0
H404 H 0.04445 0.14780 0.06350 0.0
H405 H 0.06497 0.12926 0.06368 0.0
H406 H 0.09024 0.19816 0.00010 0.0
H407 H 0.06996 0.21706 0.00381 0.0
H408 H 0.06506 0.19671 0.05777 0.0
H409 H 0.08524 0.17751 0.05399 0.0
H410 H 0.07191 0.14821 0.00875 0.0
H411 H 0.05199 0.16810 0.01069 0.0
C412 C 0.93507 0.99812 0.05068 0.0
C413 C 0.91780 0.00010 0.02526 0.0
C414 C 0.89777 0.99840 0.04326 0.0
C415 C 0.84377 0.99892 0.00849 0.0
C416 C 0.86046 0.99990 0.03417 0.0
C417 C 0.88065 0.99990 0.01777 0.0
N418 N 0.95403 0.99990 0.03382 0.0
H419 H 0.95993 0.98095 0.02705 0.0
N420 N 0.82421 0.99855 0.02427 0.0
H421 H 0.81758 0.01685 0.02783 0.0
H422 H 0.93407 0.01516 0.06762 0.0
H423 H 0.93411 0.97859 0.06246 0.0
H424 H 0.91844 0.02053 0.01407 0.0
H425 H 0.91901 0.98405 0.00787 0.0
H426 H 0.89737 0.97898 0.05532 0.0
H427 H 0.89632 0.01557 0.05997 0.0
H428 H 0.84460 0.01720 0.99455 0.0
H429 H 0.84535 0.98052 0.99346 0.0
H430 H 0.85951 0.98139 0.04826 0.0
H431 H 0.85896 0.01809 0.04898 0.0
H432 H 0.88181 0.01819 0.00461 0.0
H433 H 0.88182 0.98156 0.00203 0.0
C434 C 0.07257 0.00127 0.05397 0.0
C435 C 0.08952 0.00276 0.02816 0.0
C436 C 0.10977 0.00221 0.04610 0.0
C437 C 0.16334 0.00723 0.01116 0.0
C438 C 0.14697 0.00260 0.03638 0.0
C439 C 0.12658 0.00515 0.02062 0.0
N440 N 0.05340 0.00285 0.03746 0.0
H441 H 0.04744 0.02176 0.03569 0.0
N442 N 0.18309 0.00514 0.02643 0.0
H443 H 0.18973 0.98667 0.02503 0.0
H444 H 0.07375 0.98192 0.06608 0.0
H445 H 0.07370 0.01854 0.07061 0.0
H446 H 0.08871 0.98509 0.01202 0.0
H447 H 0.08812 0.02179 0.01552 0.0
H448 H 0.11035 0.01933 0.06299 0.0
H449 H 0.11140 0.98277 0.05795 0.0
H450 H 0.16231 0.99152 0.99274 0.0
H451 H 0.16160 0.02760 0.00128 0.0
H452 H 0.14812 0.01813 0.05492 0.0
H453 H 0.14861 0.98208 0.04600 0.0
H454 H 0.12522 0.98892 0.00285 0.0
H455 H 0.12524 0.02519 0.00992 0.0
C456 C 0.97368 0.91417 0.04829 0.0
C457 C 0.96243 0.89326 0.02268 0.0
C458 C 0.95401 0.86515 0.04008 0.0
C459 C 0.92459 0.79474 0.00423 0.0
C460 C 0.93382 0.81659 0.03024 0.0
C461 C 0.94364 0.84363 0.01433 0.0
N462 N 0.98226 0.94018 0.03195 0.0
H463 H 0.99498 0.93821 0.02444 0.0
N464 N 0.91529 0.76834 0.01951 0.0
H465 H 0.90204 0.76945 0.02381 0.0
H466 H 0.96451 0.92176 0.06600 0.0
H467 H 0.98424 0.90205 0.05907 0.0
H468 H 0.95156 0.90512 0.01250 0.0
H469 H 0.97148 0.88617 0.00456 0.0
H470 H 0.96481 0.85382 0.05115 0.0
H471 H 0.94453 0.87222 0.05755 0.0
H472 H 0.91456 0.80605 0.99124 0.0
H473 H 0.93487 0.78714 0.98837 0.0
H474 H 0.94371 0.80520 0.04339 0.0
H475 H 0.92349 0.82441 0.04589 0.0
H476 H 0.93359 0.85560 0.00214 0.0
H477 H 0.95343 0.83575 0.99779 0.0
C478 C 0.36589 0.47152 0.73683 0.0
C479 C 0.36702 0.47376 0.77621 0.0
C480 C 0.34760 0.47646 0.79738 0.0
C481 C 0.40471 0.46608 0.69443 0.0
C482 C 0.32593 0.47469 0.73979 0.0
C483 C 0.34535 0.47200 0.71862 0.0
C484 C 0.38531 0.46881 0.71565 0.0
C485 C 0.32706 0.47692 0.77917 0.0
H486 H 0.38223 0.47342 0.78970 0.0
H487 H 0.34843 0.47813 0.82654 0.0
H488 H 0.31072 0.47504 0.72631 0.0
H489 H 0.34452 0.47035 0.68947 0.0
C490 C 0.56613 0.29435 0.72865 0.0
C491 C 0.56029 0.26198 0.71367 0.0
C492 C 0.56598 0.23226 0.73290 0.0
C493 C 0.55475 0.35382 0.69026 0.0
C494 C 0.58337 0.26730 0.78208 0.0
C495 C 0.57767 0.29701 0.76285 0.0
C496 C 0.56044 0.32407 0.70944 0.0
C497 C 0.57752 0.23493 0.76711 0.0
H498 H 0.55175 0.25999 0.68835 0.0
H499 H 0.56166 0.20829 0.72182 0.0
H500 H 0.59190 0.26927 0.80740 0.0
H501 H 0.58200 0.32099 0.77392 0.0
C502 C 0.56587 0.29777 0.33799 0.0
C503 C 0.56514 0.29697 0.29857 0.0
C504 C 0.57019 0.26640 0.27823 0.0
C505 C 0.55575 0.35887 0.37874 0.0
C506 C 0.57670 0.23743 0.33672 0.0
C507 C 0.57165 0.26800 0.35706 0.0
C508 C 0.56081 0.32833 0.35835 0.0
C509 C 0.57596 0.23663 0.29731 0.0
H510 H 0.56087 0.31900 0.28444 0.0
H511 H 0.56966 0.26580 0.24905 0.0
H512 H 0.58098 0.21540 0.35084 0.0
H513 H 0.57219 0.26861 0.38625 0.0
C514 C 0.44127 0.70837 0.33388 0.0
C515 C 0.45764 0.73147 0.32427 0.0
C516 C 0.45194 0.76119 0.30506 0.0
C517 C 0.45263 0.64892 0.37232 0.0
C518 C 0.41351 0.74472 0.30508 0.0
C519 C 0.41921 0.71499 0.32428 0.0
C520 C 0.44696 0.67865 0.35309 0.0
C521 C 0.42987 0.76782 0.29547 0.0
H522 H 0.47398 0.72657 0.33135 0.0
H523 H 0.46405 0.77829 0.29794 0.0
H524 H 0.39717 0.74962 0.29798 0.0
H525 H 0.40710 0.69788 0.33139 0.0
C526 C 0.44154 0.70503 0.72453 0.0
C527 C 0.45709 0.73124 0.72756 0.0
C528 C 0.45203 0.76179 0.74793 0.0
C529 C 0.45163 0.64390 0.68384 0.0
C530 C 0.41587 0.73993 0.76224 0.0
C531 C 0.42093 0.70938 0.74186 0.0
C532 C 0.44660 0.67447 0.70418 0.0
C533 C 0.43142 0.76613 0.76528 0.0
H534 H 0.47235 0.72804 0.71473 0.0
H535 H 0.46354 0.78120 0.75018 0.0
H536 H 0.40062 0.74315 0.77507 0.0
H537 H 0.40942 0.68998 0.73961 0.0
C538 C 0.64151 0.53124 0.32583 0.0
C539 C 0.66131 0.54385 0.34087 0.0
C540 C 0.68072 0.54114 0.31966 0.0
C541 C 0.60268 0.53666 0.36818 0.0
C542 C 0.66052 0.51318 0.26838 0.0
C543 C 0.64112 0.51589 0.28959 0.0
C544 C 0.62210 0.53396 0.34702 0.0
C545 C 0.68032 0.52581 0.28342 0.0
H546 H 0.66161 0.55520 0.36770 0.0
H547 H 0.69538 0.55047 0.33079 0.0
H548 H 0.66023 0.50183 0.24156 0.0
H549 H 0.62646 0.50655 0.27847 0.0
C550 C 0.36810 0.47503 0.34611 0.0
C551 C 0.36838 0.48110 0.30749 0.0
C552 C 0.34852 0.48357 0.28739 0.0
C553 C 0.40780 0.47011 0.38639 0.0
C554 C 0.32810 0.47388 0.34449 0.0
C555 C 0.34796 0.47141 0.36460 0.0
C556 C 0.38796 0.47257 0.36623 0.0
C557 C 0.32838 0.47997 0.30588 0.0
H558 H 0.38329 0.48377 0.29379 0.0
H559 H 0.34872 0.48806 0.25880 0.0
H560 H 0.31319 0.47121 0.35818 0.0
H561 H 0.34776 0.46690 0.39319 0.0
C562 C 0.63930 0.52771 0.71638 0.0
C563 C 0.65921 0.52213 0.69713 0.0
C564 C 0.67906 0.51966 0.71727 0.0
C565 C 0.59958 0.53263 0.67616 0.0
C566 C 0.65909 0.52834 0.77592 0.0
C567 C 0.63924 0.53082 0.75577 0.0
C568 C 0.61944 0.53017 0.69626 0.0
C569 C 0.67900 0.52276 0.75667 0.0
H570 H 0.65927 0.51984 0.66797 0.0
H571 H 0.69381 0.51554 0.70303 0.0
H572 H 0.65905 0.53064 0.80507 0.0
H573 H 0.62450 0.53495 0.77002 0.0
