data_{}
_symmetry_space_group_name_H-M    P1
_symmetry_Int_Tables_number       1
_symmetry_cell_setting            triclinic
loop_
_symmetry_equiv_pos_as_xyz
'x, y, z'
_cell_length_a     62.506
_cell_length_b     41.872
_cell_length_c     68.399
_cell_angle_alpha  95.601
_cell_angle_beta   88.993
_cell_angle_gamma  71.427
loop_
_atom_site_label
_atom_site_type_symbol
_atom_site_fract_x
_atom_site_fract_y
_atom_site_fract_z
_atom_type_partial_charge
C0 C 0.02320 0.02802 0.61959 0.0
C1 C 0.02521 0.99674 0.63046 0.0
C2 C 0.02929 0.99792 0.65261 0.0
C3 C 0.03138 0.03037 0.66391 0.0
C4 C 0.02937 0.06165 0.65304 0.0
C5 C 0.02529 0.06047 0.63089 0.0
C6 C 0.01912 0.02684 0.59744 0.0
C7 C 0.01711 0.05811 0.58657 0.0
C8 C 0.01920 0.09056 0.59786 0.0
C9 C 0.02328 0.09174 0.62002 0.0
C10 C 0.02536 0.12420 0.63131 0.0
C11 C 0.02945 0.12538 0.65347 0.0
C12 C 0.03145 0.09410 0.66434 0.0
H13 H 0.02366 0.97272 0.62210 0.0
H14 H 0.03440 0.03125 0.68031 0.0
H15 H 0.01757 0.00281 0.58908 0.0
H16 H 0.01771 0.11372 0.58982 0.0
H17 H 0.02388 0.14735 0.62327 0.0
H18 H 0.03448 0.09497 0.68074 0.0
C19 C 0.02332 0.00161 0.43092 0.0
C20 C 0.02540 0.96714 0.41944 0.0
C21 C 0.02947 0.96202 0.39691 0.0
C22 C 0.03147 0.99137 0.38587 0.0
C23 C 0.02939 0.02583 0.39735 0.0
C24 C 0.02532 0.03095 0.41987 0.0
C25 C 0.01925 0.00672 0.45345 0.0
C26 C 0.01717 0.04118 0.46493 0.0
C27 C 0.01917 0.07053 0.45388 0.0
C28 C 0.02324 0.06541 0.43136 0.0
C29 C 0.02524 0.09475 0.42031 0.0
C30 C 0.02932 0.08964 0.39778 0.0
C31 C 0.03139 0.05517 0.38630 0.0
H32 H 0.02392 0.94542 0.42762 0.0
H33 H 0.03449 0.98758 0.36919 0.0
H34 H 0.01777 0.98500 0.46162 0.0
H35 H 0.01763 0.09604 0.46238 0.0
H36 H 0.02370 0.12026 0.42881 0.0
H37 H 0.03441 0.05138 0.36963 0.0
Ni38 Ni 0.07613 0.52769 0.76417 0.0
C39 C 0.03991 0.55082 0.78279 0.0
C40 C 0.08600 0.59335 0.76614 0.0
C41 C 0.08860 0.62206 0.75960 0.0
C42 C 0.08018 0.63167 0.74176 0.0
C43 C 0.06918 0.61166 0.73147 0.0
C44 C 0.06766 0.58309 0.73889 0.0
H45 H 0.09137 0.58753 0.77831 0.0
H46 H 0.09592 0.63475 0.76707 0.0
H47 H 0.06286 0.61764 0.71961 0.0
H48 H 0.06039 0.56992 0.73171 0.0
C49 C 0.08242 0.47376 0.74409 0.0
C50 C 0.12501 0.52247 0.76503 0.0
C51 C 0.14588 0.51790 0.77270 0.0
C52 C 0.15024 0.50411 0.79034 0.0
C53 C 0.13309 0.49517 0.79928 0.0
C54 C 0.11263 0.50112 0.79079 0.0
H55 H 0.12245 0.53118 0.75299 0.0
H56 H 0.15685 0.52403 0.76611 0.0
H57 H 0.13550 0.48517 0.81094 0.0
H58 H 0.10133 0.49519 0.79707 0.0
N59 N 0.07618 0.57342 0.75596 0.0
N60 N 0.10825 0.51505 0.77392 0.0
O61 O 0.04041 0.54301 0.76441 0.0
O62 O 0.05827 0.54717 0.79123 0.0
O63 O 0.07701 0.47652 0.76224 0.0
O64 O 0.08497 0.49893 0.73667 0.0
Ni65 Ni 0.07592 0.51474 0.28198 0.0
C66 C 0.03967 0.52660 0.26663 0.0
C67 C 0.08578 0.43955 0.27911 0.0
C68 C 0.08838 0.40833 0.28540 0.0
C69 C 0.07998 0.40684 0.30401 0.0
C70 C 0.06899 0.43746 0.31529 0.0
C71 C 0.06747 0.46749 0.30801 0.0
H72 H 0.09114 0.44020 0.26645 0.0
H73 H 0.09570 0.38857 0.27727 0.0
H74 H 0.06269 0.43757 0.32772 0.0
H75 H 0.06021 0.48768 0.31585 0.0
C76 C 0.08222 0.56259 0.30148 0.0
C77 C 0.12479 0.47277 0.27669 0.0
C78 C 0.14565 0.45720 0.26713 0.0
C79 C 0.14999 0.46680 0.24909 0.0
C80 C 0.13284 0.49231 0.24171 0.0
C81 C 0.11239 0.50610 0.25205 0.0
H82 H 0.12224 0.46652 0.28896 0.0
H83 H 0.15663 0.44047 0.27272 0.0
H84 H 0.13524 0.49998 0.22983 0.0
H85 H 0.10108 0.52294 0.24679 0.0
N86 N 0.07597 0.46896 0.29017 0.0
N87 N 0.10802 0.49638 0.26932 0.0
O88 O 0.04020 0.53390 0.28496 0.0
O89 O 0.05803 0.51253 0.25653 0.0
O90 O 0.07680 0.56507 0.28383 0.0
O91 O 0.08478 0.53495 0.30867 0.0
C92 C 0.84610 0.67839 0.16784 0.0
C93 C 0.85164 0.64699 0.15253 0.0
C94 C 0.83676 0.64731 0.13481 0.0
C95 C 0.84203 0.61606 0.11940 0.0
C96 C 0.82700 0.61661 0.10175 0.0
C97 C 0.80672 0.64836 0.09957 0.0
C98 C 0.80150 0.67961 0.11493 0.0
C99 C 0.81651 0.67906 0.13256 0.0
C100 C 0.80150 0.61895 0.06713 0.0
C101 C 0.78576 0.62778 0.05011 0.0
C102 C 0.76361 0.61921 0.05003 0.0
C103 C 0.74596 0.63391 0.03513 0.0
C104 C 0.75157 0.65351 0.01891 0.0
C105 C 0.77468 0.65922 0.01794 0.0
C106 C 0.79178 0.64638 0.03359 0.0
C107 C 0.81413 0.65453 0.03363 0.0
C108 C 0.75837 0.59847 0.06581 0.0
C109 C 0.73372 0.66837 0.00416 0.0
C110 C 0.72254 0.62949 0.03652 0.0
C111 C 0.68266 0.66278 0.04456 0.0
C112 C 0.67813 0.62940 0.03805 0.0
C113 C 0.65367 0.62890 0.03691 0.0
C114 C 0.63378 0.66179 0.04228 0.0
C115 C 0.63833 0.69513 0.04896 0.0
C116 C 0.66280 0.69562 0.05009 0.0
C117 C 0.60936 0.66122 0.04094 0.0
C118 C 0.60495 0.62781 0.03417 0.0
C119 C 0.78028 0.67941 0.00210 0.0
C120 C 0.79734 0.67111 0.96866 0.0
C121 C 0.79306 0.70961 0.97103 0.0
C122 C 0.80463 0.72541 0.95642 0.0
C123 C 0.82049 0.70265 0.93952 0.0
C124 C 0.82471 0.66416 0.93714 0.0
C125 C 0.81312 0.64838 0.95172 0.0
C126 C 0.83227 0.71824 0.92498 0.0
C127 C 0.84825 0.69520 0.90824 0.0
O128 O 0.79208 0.64928 0.08225 0.0
O129 O 0.78694 0.65539 0.98349 0.0
O130 O 0.70658 0.66348 0.04505 0.0
H131 H 0.83104 0.70173 0.16598 0.0
H132 H 0.86669 0.62360 0.15433 0.0
H133 H 0.85703 0.59256 0.12107 0.0
H134 H 0.83088 0.59355 0.09031 0.0
H135 H 0.78653 0.70313 0.11323 0.0
H136 H 0.81264 0.70216 0.14395 0.0
H137 H 0.80076 0.59485 0.07314 0.0
H138 H 0.81955 0.61627 0.06213 0.0
H139 H 0.81351 0.67381 0.02281 0.0
H140 H 0.82885 0.63039 0.02912 0.0
H141 H 0.81648 0.66553 0.04905 0.0
H142 H 0.76917 0.59973 0.07894 0.0
H143 H 0.76248 0.57093 0.05929 0.0
H144 H 0.73972 0.60902 0.07079 0.0
H145 H 0.74050 0.68343 0.99405 0.0
H146 H 0.71771 0.68580 0.01260 0.0
H147 H 0.72966 0.64695 0.99503 0.0
H148 H 0.71742 0.62235 0.02121 0.0
H149 H 0.72258 0.60925 0.04654 0.0
H150 H 0.69288 0.60511 0.03400 0.0
H151 H 0.65027 0.60422 0.03205 0.0
H152 H 0.62361 0.71944 0.05300 0.0
H153 H 0.66622 0.72031 0.05495 0.0
H154 H 0.59456 0.68549 0.04491 0.0
H155 H 0.61978 0.60359 0.03021 0.0
H156 H 0.76509 0.70224 0.99990 0.0
H157 H 0.79513 0.68817 0.00675 0.0
H158 H 0.78146 0.72632 0.98367 0.0
H159 H 0.80153 0.75390 0.95815 0.0
H160 H 0.83647 0.64737 0.92461 0.0
H161 H 0.81633 0.61987 0.95007 0.0
H162 H 0.82922 0.74673 0.92662 0.0
H163 H 0.85126 0.66673 0.90666 0.0
C164 C 0.34197 0.34993 0.87700 0.0
C165 C 0.35571 0.31806 0.88626 0.0
C166 C 0.36940 0.32165 0.90435 0.0
C167 C 0.38329 0.29001 0.91375 0.0
C168 C 0.39698 0.29386 0.93182 0.0
C169 C 0.39678 0.32932 0.94042 0.0
C170 C 0.38285 0.36092 0.93108 0.0
C171 C 0.36918 0.35708 0.91303 0.0
C172 C 0.41966 0.30074 0.96733 0.0
C173 C 0.42927 0.31206 0.98627 0.0
C174 C 0.45329 0.31449 0.98577 0.0
C175 C 0.46113 0.33201 0.00375 0.0
C176 C 0.44613 0.34323 0.02290 0.0
C177 C 0.42294 0.33776 0.02390 0.0
C178 C 0.41449 0.32220 0.00554 0.0
C179 C 0.39054 0.31931 0.00600 0.0
C180 C 0.46864 0.30205 0.96681 0.0
C181 C 0.45403 0.36101 0.04078 0.0
C182 C 0.48382 0.33879 0.00258 0.0
C183 C 0.49917 0.38602 0.00223 0.0
C184 C 0.52226 0.35849 0.00292 0.0
C185 C 0.54380 0.36859 0.00498 0.0
C186 C 0.54220 0.40621 0.00635 0.0
C187 C 0.51910 0.43373 0.00549 0.0
C188 C 0.49757 0.42362 0.00344 0.0
C189 C 0.56375 0.41621 0.00860 0.0
C190 C 0.58676 0.38855 0.00953 0.0
C191 C 0.40759 0.34957 0.04280 0.0
C192 C 0.39934 0.32895 0.07348 0.0
C193 C 0.38123 0.36394 0.07812 0.0
C194 C 0.36312 0.36962 0.09479 0.0
C195 C 0.36313 0.34026 0.10671 0.0
C196 C 0.38129 0.30531 0.10207 0.0
C197 C 0.39942 0.29965 0.08544 0.0
C198 C 0.34495 0.34569 0.12326 0.0
C199 C 0.34501 0.31607 0.13496 0.0
O200 O 0.40991 0.33338 0.95822 0.0
O201 O 0.41639 0.32287 0.05656 0.0
O202 O 0.47803 0.37620 0.00010 0.0
H203 H 0.34198 0.37602 0.88358 0.0
H204 H 0.35575 0.29193 0.87972 0.0
H205 H 0.38344 0.26377 0.90733 0.0
H206 H 0.40725 0.27050 0.93883 0.0
H207 H 0.38266 0.38716 0.93753 0.0
H208 H 0.35889 0.38046 0.90607 0.0
H209 H 0.43356 0.28171 0.95719 0.0
H210 H 0.40582 0.28964 0.97100 0.0
H211 H 0.38081 0.33399 0.02007 0.0
H212 H 0.39164 0.29154 0.00555 0.0
H213 H 0.38145 0.33042 0.99269 0.0
H214 H 0.45785 0.30077 0.95368 0.0
H215 H 0.48096 0.27569 0.96818 0.0
H216 H 0.47857 0.32010 0.96456 0.0
H217 H 0.44023 0.36898 0.05309 0.0
H218 H 0.45761 0.38436 0.03624 0.0
H219 H 0.47012 0.34294 0.04614 0.0
H220 H 0.49313 0.33219 0.01657 0.0
H221 H 0.49464 0.32341 0.98916 0.0
H222 H 0.52339 0.33065 0.00199 0.0
H223 H 0.56091 0.34825 0.00554 0.0
H224 H 0.51794 0.46158 0.00643 0.0
H225 H 0.48043 0.44396 0.00288 0.0
H226 H 0.56268 0.44403 0.00960 0.0
H227 H 0.58778 0.36076 0.00852 0.0
H228 H 0.40802 0.37518 0.04980 0.0
H229 H 0.38954 0.35133 0.03916 0.0
H230 H 0.38116 0.38552 0.06915 0.0
H231 H 0.34965 0.39548 0.09825 0.0
H232 H 0.38126 0.28362 0.11092 0.0
H233 H 0.41278 0.27374 0.08189 0.0
H234 H 0.33145 0.37151 0.12681 0.0
H235 H 0.35853 0.29029 0.13136 0.0
C236 C 0.00980 0.58096 0.80601 0.0
C237 C 0.98808 0.59871 0.81902 0.0
C238 C 0.96638 0.61645 0.83204 0.0
C239 C 0.95080 0.65165 0.82801 0.0
C240 C 0.92910 0.66938 0.84103 0.0
C241 C 0.92299 0.65193 0.85810 0.0
C242 C 0.93857 0.61674 0.86214 0.0
C243 C 0.96026 0.59899 0.84910 0.0
C244 C 0.90128 0.66967 0.87112 0.0
C245 C 0.87959 0.68738 0.88415 0.0
H246 H 0.95534 0.66459 0.81539 0.0
H247 H 0.91755 0.69542 0.83803 0.0
H248 H 0.93404 0.60381 0.87477 0.0
H249 H 0.97179 0.57293 0.85209 0.0
C250 C 0.00987 0.54220 0.24785 0.0
C251 C 0.98808 0.56150 0.23826 0.0
C252 C 0.96630 0.58084 0.22868 0.0
C253 C 0.95917 0.56483 0.20971 0.0
C254 C 0.93739 0.58416 0.20014 0.0
C255 C 0.92274 0.61952 0.20951 0.0
C256 C 0.92987 0.63553 0.22848 0.0
C257 C 0.95164 0.61618 0.23807 0.0
C258 C 0.90096 0.63885 0.19993 0.0
C259 C 0.87917 0.65821 0.19036 0.0
H260 H 0.97003 0.53868 0.20276 0.0
H261 H 0.93210 0.57230 0.18611 0.0
H262 H 0.91902 0.66170 0.23542 0.0
H263 H 0.95691 0.62802 0.25211 0.0
C264 C 0.18154 0.48154 0.79906 0.0
C265 C 0.20340 0.46206 0.80848 0.0
C266 C 0.22526 0.44263 0.81793 0.0
C267 C 0.23033 0.40485 0.82052 0.0
C268 C 0.25219 0.38542 0.82995 0.0
C269 C 0.26897 0.40378 0.83683 0.0
C270 C 0.26390 0.44155 0.83424 0.0
C271 C 0.24204 0.46098 0.82479 0.0
C272 C 0.29083 0.38434 0.84627 0.0
C273 C 0.31269 0.36494 0.85572 0.0
H274 H 0.21790 0.39127 0.81545 0.0
H275 H 0.25596 0.35744 0.83185 0.0
H276 H 0.27632 0.45514 0.83933 0.0
H277 H 0.23829 0.48895 0.82287 0.0
C278 C 0.18166 0.44414 0.23594 0.0
C279 C 0.20342 0.42611 0.22304 0.0
C280 C 0.22518 0.40813 0.21014 0.0
C281 C 0.24181 0.37463 0.21556 0.0
C282 C 0.26357 0.35664 0.20265 0.0
C283 C 0.26870 0.37217 0.18434 0.0
C284 C 0.25207 0.40566 0.17892 0.0
C285 C 0.23030 0.42364 0.19182 0.0
C286 C 0.29046 0.35418 0.17143 0.0
C287 C 0.31221 0.33622 0.15852 0.0
H288 H 0.23803 0.36316 0.22912 0.0
H289 H 0.27587 0.33183 0.20664 0.0
H290 H 0.25586 0.41715 0.16536 0.0
H291 H 0.21798 0.44843 0.18781 0.0
H292 H 0.56727 0.47880 0.04065 0.0
H293 H 0.60312 0.45115 0.03702 0.0
H294 H 0.58743 0.50824 0.01583 0.0
H295 H 0.58673 0.50606 0.05624 0.0
H296 H 0.57009 0.53240 0.04399 0.0
H297 H 0.63245 0.53453 0.01609 0.0
H298 H 0.61133 0.53444 0.00412 0.0
H299 H 0.63070 0.47387 0.04630 0.0
H300 H 0.64765 0.49066 0.03807 0.0
H301 H 0.63216 0.53839 0.05704 0.0
H302 H 0.62105 0.51717 0.06920 0.0
H303 H 0.59120 0.56250 0.06078 0.0
H304 H 0.61090 0.57638 0.03522 0.0
C305 C 0.59443 0.46257 0.02648 0.0
C306 C 0.59645 0.49785 0.02650 0.0
C307 C 0.58585 0.52006 0.04559 0.0
C308 C 0.61752 0.53224 0.01699 0.0
C309 C 0.63179 0.49399 0.04100 0.0
C310 C 0.62228 0.52457 0.05635 0.0
C311 C 0.59912 0.54487 0.05021 0.0
C312 C 0.60247 0.56068 0.03167 0.0
N313 N 0.61948 0.49853 0.02259 0.0
O314 O 0.57160 0.46738 0.03004 0.0
C315 C 0.03257 0.15433 0.66233 0.0
C316 C 0.03772 0.18652 0.67055 0.0
C317 C 0.04287 0.21871 0.67876 0.0
C318 C 0.02348 0.25241 0.68348 0.0
C319 C 0.02865 0.28458 0.69170 0.0
C320 C 0.05320 0.28307 0.69520 0.0
C321 C 0.07259 0.24938 0.69048 0.0
C322 C 0.06743 0.21721 0.68226 0.0
C323 C 0.05835 0.31526 0.70344 0.0
C324 C 0.08290 0.31375 0.70695 0.0
C325 C 0.08805 0.34594 0.71519 0.0
C326 C 0.06865 0.37964 0.71988 0.0
C327 C 0.04409 0.38114 0.71636 0.0
C328 C 0.03895 0.34895 0.70813 0.0
C329 C 0.07379 0.41183 0.72811 0.0
C330 C 0.07890 0.44406 0.73634 0.0
H331 H 0.00530 0.25353 0.68088 0.0
H332 H 0.01429 0.30952 0.69519 0.0
H333 H 0.09077 0.24826 0.69308 0.0
H334 H 0.08178 0.19227 0.67876 0.0
H335 H 0.09727 0.28882 0.70347 0.0
H336 H 0.10622 0.34484 0.71780 0.0
H337 H 0.02973 0.40608 0.71985 0.0
H338 H 0.02078 0.35005 0.70552 0.0
C339 C 0.03220 0.96942 0.66092 0.0
C340 C 0.03726 0.93468 0.66879 0.0
C341 C 0.04232 0.89994 0.67667 0.0
C342 C 0.06661 0.87496 0.67506 0.0
C343 C 0.07166 0.84023 0.68295 0.0
C344 C 0.05242 0.83048 0.69243 0.0
C345 C 0.02812 0.85546 0.69403 0.0
C346 C 0.02308 0.89018 0.68614 0.0
C347 C 0.05748 0.79576 0.70032 0.0
C348 C 0.03824 0.78601 0.70982 0.0
C349 C 0.04331 0.75128 0.71770 0.0
C350 C 0.06760 0.72630 0.71608 0.0
C351 C 0.08684 0.73605 0.70659 0.0
C352 C 0.08177 0.77078 0.69870 0.0
C353 C 0.07267 0.69157 0.72397 0.0
C354 C 0.07778 0.65682 0.73184 0.0
H355 H 0.08086 0.88218 0.66804 0.0
H356 H 0.08964 0.82175 0.68176 0.0
H357 H 0.01388 0.84825 0.70105 0.0
H358 H 0.00510 0.90867 0.68732 0.0
H359 H 0.02025 0.80449 0.71101 0.0
H360 H 0.02908 0.74406 0.72475 0.0
H361 H 0.10482 0.71757 0.70539 0.0
H362 H 0.09600 0.77801 0.69166 0.0
C363 C 0.03257 0.93008 0.38777 0.0
C364 C 0.03769 0.89292 0.37908 0.0
C365 C 0.04282 0.85577 0.37038 0.0
C366 C 0.06729 0.83139 0.36883 0.0
C367 C 0.07239 0.79424 0.36014 0.0
C368 C 0.05303 0.78148 0.35299 0.0
C369 C 0.02856 0.80586 0.35454 0.0
C370 C 0.02346 0.84300 0.36323 0.0
C371 C 0.05814 0.74432 0.34431 0.0
C372 C 0.03879 0.73154 0.33717 0.0
C373 C 0.04391 0.69438 0.32849 0.0
C374 C 0.06839 0.67001 0.32693 0.0
C375 C 0.08775 0.68280 0.33407 0.0
C376 C 0.08262 0.71995 0.34275 0.0
C377 C 0.07352 0.63285 0.31825 0.0
C378 C 0.07868 0.59569 0.30956 0.0
H379 H 0.08162 0.84084 0.37412 0.0
H380 H 0.09050 0.77619 0.35899 0.0
H381 H 0.01422 0.79641 0.34925 0.0
H382 H 0.00534 0.86106 0.36437 0.0
H383 H 0.02067 0.74957 0.33832 0.0
H384 H 0.02958 0.68490 0.32322 0.0
H385 H 0.10587 0.66476 0.33292 0.0
H386 H 0.09695 0.72943 0.34803 0.0
C387 C 0.03221 0.11532 0.38922 0.0
C388 C 0.03725 0.14518 0.38088 0.0
C389 C 0.04228 0.17504 0.37254 0.0
C390 C 0.06282 0.18523 0.37925 0.0
C391 C 0.06785 0.21509 0.37090 0.0
C392 C 0.05234 0.23476 0.35584 0.0
C393 C 0.03180 0.22458 0.34913 0.0
C394 C 0.02678 0.19473 0.35749 0.0
C395 C 0.05739 0.26460 0.34749 0.0
C396 C 0.04189 0.28427 0.33242 0.0
C397 C 0.04694 0.31412 0.32407 0.0
C398 C 0.06747 0.32431 0.33080 0.0
C399 C 0.08297 0.30464 0.34587 0.0
C400 C 0.07792 0.27480 0.35422 0.0
C401 C 0.07253 0.35415 0.32245 0.0
C402 C 0.07760 0.38400 0.31413 0.0
H403 H 0.07430 0.17067 0.39041 0.0
H404 H 0.08305 0.22263 0.37587 0.0
H405 H 0.02033 0.23914 0.33798 0.0
H406 H 0.01157 0.18719 0.35253 0.0
H407 H 0.02669 0.27675 0.32744 0.0
H408 H 0.03549 0.32867 0.31290 0.0
H409 H 0.09817 0.31217 0.35085 0.0
H410 H 0.08938 0.26023 0.36538 0.0
C411 C 0.02384 0.04256 0.48846 0.0
C412 C 0.04796 0.02691 0.48893 0.0
C413 C 0.05787 0.02283 0.50601 0.0
C414 C 0.04503 0.03314 0.52421 0.0
C415 C 0.02146 0.04703 0.52416 0.0
C416 C 0.01126 0.05181 0.50566 0.0
C417 C 0.00871 0.05701 0.54234 0.0
C418 C 0.01895 0.05414 0.55963 0.0
C419 C 0.04278 0.04279 0.55963 0.0
C420 C 0.05573 0.03148 0.54249 0.0
H421 H 0.05676 0.01950 0.47708 0.0
H422 H 0.07365 0.01290 0.50600 0.0
H423 H 0.99548 0.06153 0.50544 0.0
H424 H 0.99287 0.06581 0.54239 0.0
H425 H 0.04987 0.04299 0.57164 0.0
H426 H 0.07154 0.02267 0.54276 0.0
