data_{}
_symmetry_space_group_name_H-M    P1
_symmetry_Int_Tables_number       1
_symmetry_cell_setting            triclinic
loop_
_symmetry_equiv_pos_as_xyz
'x, y, z'
_cell_length_a     52.799
_cell_length_b     51.717
_cell_length_c     32.891
_cell_angle_alpha  97.087
_cell_angle_beta   90.286
_cell_angle_gamma  87.076
loop_
_atom_site_label
_atom_site_type_symbol
_atom_site_fract_x
_atom_site_fract_y
_atom_site_fract_z
_atom_type_partial_charge
Mn0 Mn 0.00198 0.00165 0.08600 0.0
H1 H 0.97843 0.94676 0.06371 0.0
C2 C 0.97076 0.05566 0.10442 0.0
H3 H 0.94423 0.01047 0.11686 0.0
H4 H 0.90589 0.99144 0.11403 0.0
C5 C 0.04031 0.04737 0.09843 0.0
H6 H 0.94106 0.92586 0.05903 0.0
C7 C 0.06045 0.01002 0.06724 0.0
C8 C 0.08366 0.02138 0.06865 0.0
C9 C 0.08527 0.04729 0.08625 0.0
C10 C 0.06281 0.06015 0.10113 0.0
H11 H 0.02553 0.05653 0.10828 0.0
N12 N 0.96505 0.98092 0.08970 0.0
H13 H 0.05973 0.99283 0.05513 0.0
H14 H 0.09807 0.01186 0.05797 0.0
N15 N 0.03891 0.02238 0.08230 0.0
H16 H 0.06290 0.07743 0.11296 0.0
O17 O 0.02459 0.96586 0.09404 0.0
O18 O 0.02885 0.94554 0.02994 0.0
O19 O 0.97938 0.03744 0.07796 0.0
O20 O 0.97512 0.05775 0.14205 0.0
C21 C 0.03320 0.94764 0.06758 0.0
C22 C 0.96366 0.95593 0.07356 0.0
C23 C 0.94351 0.99328 0.10476 0.0
C24 C 0.92030 0.98192 0.10335 0.0
C25 C 0.91869 0.95601 0.08575 0.0
C26 C 0.94115 0.94315 0.07086 0.0
O27 O 0.51910 0.53126 0.68396 0.0
O28 O 0.51712 0.53327 0.61739 0.0
Mg29 Mg 0.49968 0.50658 0.47767 0.0
Mg30 Mg 0.50427 0.49671 0.69417 0.0
O31 O 0.53583 0.49462 0.49263 0.0
Mg32 Mg 0.50198 0.50165 0.58592 0.0
O33 O 0.51316 0.54139 0.46449 0.0
O34 O 0.53608 0.49184 0.55903 0.0
O35 O 0.51145 0.56867 0.52259 0.0
O36 O 0.53972 0.48359 0.71191 0.0
H37 H 0.47596 0.52729 0.53341 0.0
O38 O 0.55934 0.46424 0.65548 0.0
O39 O 0.48485 0.47203 0.48789 0.0
O40 O 0.48684 0.47002 0.55445 0.0
H41 H 0.50430 0.46550 0.63623 0.0
O42 O 0.46813 0.50867 0.67921 0.0
O43 O 0.46788 0.51146 0.61281 0.0
O44 O 0.49079 0.46190 0.70735 0.0
O45 O 0.49251 0.43462 0.64925 0.0
O46 O 0.46423 0.51971 0.45993 0.0
O47 O 0.44462 0.53906 0.51637 0.0
O48 O 0.49138 0.52474 0.53924 0.0
O49 O 0.51257 0.47855 0.63260 0.0
H50 H 0.52800 0.47600 0.63843 0.0
H51 H 0.49966 0.53779 0.53562 0.0
C52 C 0.52219 0.54226 0.65304 0.0
C53 C 0.54627 0.48961 0.52481 0.0
C54 C 0.51495 0.56352 0.48459 0.0
C55 C 0.55775 0.47024 0.69365 0.0
C56 C 0.48177 0.46103 0.51880 0.0
C57 C 0.45769 0.51368 0.64703 0.0
C58 C 0.48900 0.43978 0.68725 0.0
C59 C 0.44621 0.53305 0.47819 0.0
C60 C 0.47331 0.27877 0.37911 0.0
C61 C 0.48622 0.25649 0.34981 0.0
C62 C 0.47178 0.24431 0.31201 0.0
C63 C 0.48440 0.22196 0.28248 0.0
C64 C 0.46976 0.20986 0.24480 0.0
C65 C 0.44255 0.22011 0.23680 0.0
C66 C 0.42998 0.24250 0.26623 0.0
C67 C 0.44459 0.25458 0.30386 0.0
C68 C 0.44448 0.18986 0.17098 0.0
C69 C 0.42707 0.18374 0.13394 0.0
C70 C 0.40844 0.16183 0.13347 0.0
C71 C 0.38778 0.15919 0.10031 0.0
C72 C 0.38772 0.17622 0.06504 0.0
C73 C 0.40797 0.19646 0.06357 0.0
C74 C 0.42765 0.20025 0.09812 0.0
C75 C 0.44658 0.22197 0.09854 0.0
C76 C 0.40913 0.14412 0.16795 0.0
C77 C 0.36684 0.17359 0.03215 0.0
C78 C 0.36692 0.13979 0.10254 0.0
C79 C 0.32109 0.13895 0.11495 0.0
C80 C 0.32522 0.10926 0.10379 0.0
C81 C 0.30233 0.09186 0.10036 0.0
C82 C 0.27535 0.10417 0.10810 0.0
C83 C 0.27125 0.13387 0.11961 0.0
C84 C 0.29415 0.15127 0.12303 0.0
C85 C 0.25250 0.08672 0.10424 0.0
C86 C 0.25675 0.05706 0.09254 0.0
C87 C 0.40776 0.21399 0.02903 0.0
C88 C 0.42523 0.21529 0.96041 0.0
C89 C 0.41142 0.24234 0.96211 0.0
C90 C 0.41796 0.26074 0.93076 0.0
C91 C 0.43834 0.25206 0.89788 0.0
C92 C 0.45208 0.22497 0.89616 0.0
C93 C 0.44551 0.20656 0.92746 0.0
C94 C 0.44514 0.27047 0.86671 0.0
C95 C 0.46569 0.26167 0.83421 0.0
O96 O 0.42819 0.20861 0.19980 0.0
O97 O 0.41976 0.19777 0.99227 0.0
O98 O 0.34342 0.15605 0.11698 0.0
H99 H 0.45315 0.28616 0.37269 0.0
H100 H 0.50637 0.24903 0.35612 0.0
H101 H 0.50453 0.21437 0.28851 0.0
H102 H 0.47906 0.19334 0.22286 0.0
H103 H 0.40986 0.25012 0.26013 0.0
H104 H 0.43529 0.27112 0.32571 0.0
H105 H 0.45005 0.17147 0.18546 0.0
H106 H 0.46203 0.19964 0.16153 0.0
H107 H 0.44085 0.23511 0.07431 0.0
H108 H 0.46649 0.21294 0.09167 0.0
H109 H 0.44630 0.23396 0.13006 0.0
H110 H 0.41924 0.15415 0.19582 0.0
H111 H 0.41989 0.12491 0.15668 0.0
H112 H 0.38901 0.14001 0.17671 0.0
H113 H 0.36916 0.18866 0.01008 0.0
H114 H 0.34751 0.17702 0.04773 0.0
H115 H 0.36831 0.15314 0.01456 0.0
H116 H 0.36362 0.12888 0.07082 0.0
H117 H 0.37233 0.12541 0.12514 0.0
H118 H 0.34521 0.10019 0.09790 0.0
H119 H 0.30533 0.06987 0.09200 0.0
H120 H 0.25128 0.14297 0.12549 0.0
H121 H 0.29117 0.17328 0.13137 0.0
H122 H 0.23248 0.09572 0.10997 0.0
H123 H 0.27679 0.04812 0.08684 0.0
H124 H 0.38759 0.22084 0.02157 0.0
H125 H 0.41957 0.23156 0.03872 0.0
H126 H 0.39651 0.24878 0.98672 0.0
H127 H 0.40781 0.28081 0.93197 0.0
H128 H 0.46716 0.21861 0.87179 0.0
H129 H 0.45577 0.18657 0.92642 0.0
H130 H 0.43502 0.29055 0.86773 0.0
H131 H 0.47576 0.24157 0.83332 0.0
C132 C 0.73166 0.44798 0.87495 0.0
C133 C 0.71871 0.42749 0.89678 0.0
C134 C 0.73211 0.41623 0.93288 0.0
C135 C 0.71944 0.39566 0.95496 0.0
C136 C 0.73305 0.38447 0.99099 0.0
C137 C 0.75929 0.39384 0.00478 0.0
C138 C 0.77190 0.41446 0.98281 0.0
C139 C 0.75832 0.42563 0.94683 0.0
C140 C 0.75609 0.36645 0.06223 0.0
C141 C 0.77215 0.36112 0.09957 0.0
C142 C 0.79200 0.33816 0.09596 0.0
C143 C 0.81128 0.33599 0.13072 0.0
C144 C 0.80877 0.35475 0.17085 0.0
C145 C 0.78731 0.37620 0.17577 0.0
C146 C 0.76901 0.37941 0.14003 0.0
C147 C 0.74888 0.40218 0.14361 0.0
C148 C 0.79389 0.31878 0.05638 0.0
C149 C 0.82829 0.35258 0.20536 0.0
C150 C 0.83333 0.31534 0.12534 0.0
C151 C 0.87972 0.31170 0.11756 0.0
C152 C 0.87679 0.28250 0.12009 0.0
C153 C 0.90050 0.26400 0.12116 0.0
C154 C 0.92709 0.27475 0.11970 0.0
C155 C 0.93001 0.30395 0.11683 0.0
C156 C 0.90630 0.32244 0.11577 0.0
C157 C 0.95075 0.25623 0.12119 0.0
C158 C 0.94766 0.22709 0.12424 0.0
C159 C 0.78496 0.39542 0.21532 0.0
C160 C 0.76432 0.40069 0.28266 0.0
C161 C 0.77664 0.42720 0.28994 0.0
C162 C 0.76763 0.44748 0.32581 0.0
C163 C 0.74628 0.44122 0.35421 0.0
C164 C 0.73402 0.41467 0.34695 0.0
C165 C 0.74305 0.39438 0.31114 0.0
C166 C 0.73702 0.46151 0.38987 0.0
C167 C 0.71551 0.45511 0.41784 0.0
O168 O 0.77261 0.38324 0.04026 0.0
O169 O 0.77222 0.38133 0.24642 0.0
O170 O 0.85654 0.32992 0.11788 0.0
H171 H 0.75109 0.45474 0.88560 0.0
H172 H 0.69929 0.42067 0.88622 0.0
H173 H 0.70003 0.38872 0.94464 0.0
H174 H 0.72371 0.36927 0.00742 0.0
H175 H 0.79128 0.42144 0.99321 0.0
H176 H 0.76766 0.44085 0.93049 0.0
H177 H 0.75224 0.34753 0.04200 0.0
H178 H 0.73758 0.37758 0.07254 0.0
H179 H 0.75275 0.41625 0.17219 0.0
H180 H 0.72919 0.39437 0.14586 0.0
H181 H 0.74990 0.41282 0.11534 0.0
H182 H 0.78448 0.32811 0.03010 0.0
H183 H 0.78373 0.30045 0.06119 0.0
H184 H 0.81462 0.31327 0.04860 0.0
H185 H 0.82410 0.36888 0.23144 0.0
H186 H 0.84810 0.35439 0.19276 0.0
H187 H 0.82719 0.33285 0.21718 0.0
H188 H 0.83581 0.30563 0.15449 0.0
H189 H 0.82977 0.30008 0.09809 0.0
H190 H 0.85707 0.27460 0.12134 0.0
H191 H 0.89837 0.24237 0.12312 0.0
H192 H 0.94971 0.31188 0.11560 0.0
H193 H 0.90840 0.34409 0.11382 0.0
H194 H 0.97049 0.26407 0.12008 0.0
H195 H 0.92789 0.21931 0.12532 0.0
H196 H 0.80437 0.40168 0.22687 0.0
H197 H 0.77259 0.41326 0.20920 0.0
H198 H 0.79229 0.43184 0.26864 0.0
H199 H 0.77668 0.46716 0.33126 0.0
H200 H 0.71821 0.41009 0.36802 0.0
H201 H 0.73390 0.37478 0.30553 0.0
H202 H 0.74602 0.48120 0.39551 0.0
H203 H 0.70656 0.43540 0.41208 0.0
C204 C 0.27362 0.55670 0.29717 0.0
C205 C 0.25413 0.54275 0.26840 0.0
C206 C 0.24281 0.55622 0.23275 0.0
C207 C 0.22323 0.54256 0.20377 0.0
C208 C 0.21196 0.55623 0.16825 0.0
C209 C 0.22027 0.58353 0.16185 0.0
C210 C 0.23989 0.59714 0.19071 0.0
C211 C 0.25114 0.58348 0.22619 0.0
C212 C 0.19379 0.57943 0.09805 0.0
C213 C 0.18813 0.59581 0.06294 0.0
C214 C 0.16527 0.61557 0.06590 0.0
C215 C 0.16259 0.63536 0.03470 0.0
C216 C 0.18086 0.63334 0.99794 0.0
C217 C 0.20231 0.61188 0.99302 0.0
C218 C 0.20597 0.59312 0.02562 0.0
C219 C 0.22867 0.57307 0.02259 0.0
C220 C 0.14642 0.61693 0.10186 0.0
C221 C 0.17817 0.65337 0.96703 0.0
C222 C 0.14189 0.65745 0.04037 0.0
C223 C 0.13698 0.70512 0.05703 0.0
C224 C 0.10873 0.70122 0.04784 0.0
C225 C 0.09009 0.72509 0.04785 0.0
C226 C 0.09972 0.75280 0.05706 0.0
C227 C 0.12796 0.75668 0.06659 0.0
C228 C 0.14660 0.73281 0.06657 0.0
C229 C 0.08105 0.77661 0.05664 0.0
C230 C 0.05287 0.77256 0.04691 0.0
C231 C 0.22102 0.61003 0.95697 0.0
C232 C 0.22675 0.58893 0.88643 0.0
C233 C 0.25210 0.60241 0.88721 0.0
C234 C 0.27205 0.59374 0.85368 0.0
C235 C 0.26660 0.57157 0.81954 0.0
C236 C 0.24122 0.55815 0.81876 0.0
C237 C 0.22127 0.56685 0.85223 0.0
C238 C 0.28656 0.56264 0.78618 0.0
C239 C 0.28100 0.54030 0.75241 0.0
O240 O 0.20958 0.59694 0.12693 0.0
O241 O 0.20774 0.59649 0.92030 0.0
O242 O 0.15535 0.68179 0.05568 0.0
H243 H 0.27960 0.57691 0.29196 0.0
H244 H 0.24809 0.52254 0.27351 0.0
H245 H 0.21707 0.52236 0.20862 0.0
H246 H 0.19750 0.54616 0.14672 0.0
H247 H 0.24608 0.61731 0.18579 0.0
H248 H 0.26563 0.59356 0.24762 0.0
H249 H 0.17555 0.57489 0.11355 0.0
H250 H 0.20514 0.56069 0.08620 0.0
H251 H 0.24220 0.57747 0.99773 0.0
H252 H 0.22167 0.55256 0.01462 0.0
H253 H 0.23896 0.57444 0.05327 0.0
H254 H 0.15575 0.60752 0.12812 0.0
H255 H 0.12894 0.60592 0.09113 0.0
H256 H 0.14045 0.63812 0.11280 0.0
H257 H 0.19411 0.64955 0.94347 0.0
H258 H 0.17934 0.67383 0.98413 0.0
H259 H 0.15906 0.65165 0.95089 0.0
H260 H 0.13240 0.65972 0.00972 0.0
H261 H 0.12720 0.65333 0.06372 0.0
H262 H 0.10166 0.68068 0.04085 0.0
H263 H 0.06916 0.72226 0.04096 0.0
H264 H 0.13506 0.77721 0.07356 0.0
H265 H 0.16755 0.73562 0.07344 0.0
H266 H 0.08806 0.79718 0.06348 0.0
H267 H 0.04591 0.75197 0.04010 0.0
H268 H 0.22652 0.63021 0.95074 0.0
H269 H 0.23870 0.59783 0.96421 0.0
H270 H 0.25614 0.61866 0.91273 0.0
H271 H 0.29086 0.60365 0.85419 0.0
H272 H 0.23725 0.54173 0.79345 0.0
H273 H 0.20253 0.55683 0.85187 0.0
H274 H 0.30540 0.57250 0.78649 0.0
H275 H 0.26214 0.53049 0.75222 0.0
C276 C 0.52926 0.72602 0.79300 0.0
C277 C 0.55059 0.71216 0.81556 0.0
C278 C 0.56282 0.72666 0.85380 0.0
C279 C 0.58423 0.71309 0.87663 0.0
C280 C 0.59640 0.72780 0.91480 0.0
C281 C 0.58716 0.75602 0.92997 0.0
C282 C 0.56571 0.76953 0.90724 0.0
C283 C 0.55356 0.75485 0.86912 0.0
C284 C 0.61654 0.75322 0.98964 0.0
C285 C 0.62296 0.77093 0.02884 0.0
C286 C 0.64478 0.78948 0.02869 0.0
C287 C 0.64791 0.81062 0.06530 0.0
C288 C 0.63134 0.81114 0.10384 0.0
C289 C 0.61110 0.79088 0.10530 0.0
C290 C 0.60688 0.77078 0.06771 0.0
C291 C 0.58524 0.75193 0.06782 0.0
C292 C 0.66199 0.78829 0.99069 0.0
C293 C 0.63447 0.83251 0.14022 0.0
C294 C 0.66735 0.83151 0.06335 0.0
C295 C 0.66941 0.87856 0.05955 0.0
C296 C 0.69818 0.87352 0.06424 0.0
C297 C 0.71573 0.89656 0.06873 0.0
C298 C 0.70447 0.92460 0.06851 0.0
C299 C 0.67569 0.92961 0.06347 0.0
C300 C 0.65814 0.90656 0.05899 0.0
C301 C 0.72208 0.94759 0.07341 0.0
C302 C 0.75082 0.94243 0.07862 0.0
C303 C 0.59405 0.79158 0.14324 0.0
C304 C 0.59231 0.77367 0.20876 0.0
C305 C 0.56636 0.78858 0.21487 0.0
C306 C 0.54828 0.78236 0.24850 0.0
C307 C 0.55617 0.76119 0.27581 0.0
C308 C 0.58216 0.74636 0.26972 0.0
C309 C 0.60025 0.75260 0.23616 0.0
C310 C 0.53808 0.75471 0.30920 0.0
C311 C 0.54608 0.73336 0.33608 0.0
O312 O 0.59874 0.77046 0.96753 0.0
O313 O 0.60950 0.77881 0.17459 0.0
O314 O 0.65216 0.85609 0.05652 0.0
H315 H 0.52261 0.74692 0.80469 0.0
H316 H 0.55730 0.69126 0.80397 0.0
H317 H 0.59107 0.69221 0.86530 0.0
H318 H 0.61222 0.71780 0.93180 0.0
H319 H 0.55884 0.79040 0.91865 0.0
H320 H 0.53772 0.76485 0.85222 0.0
H321 H 0.63428 0.74700 0.97057 0.0
H322 H 0.60655 0.73546 0.99760 0.0
H323 H 0.57260 0.75816 0.09566 0.0
H324 H 0.59348 0.73124 0.06915 0.0
H325 H 0.57358 0.75254 0.03865 0.0
H326 H 0.65197 0.77818 0.96280 0.0
H327 H 0.68040 0.77672 0.99622 0.0
H328 H 0.66654 0.80884 0.98499 0.0
H329 H 0.61973 0.83053 0.16473 0.0
H330 H 0.63165 0.85245 0.12900 0.0
H331 H 0.65432 0.83045 0.15361 0.0
H332 H 0.67805 0.83461 0.09361 0.0
H333 H 0.68120 0.82557 0.03696 0.0
H334 H 0.70646 0.85275 0.06457 0.0
H335 H 0.73705 0.89288 0.07230 0.0
H336 H 0.66738 0.95036 0.06316 0.0
H337 H 0.63681 0.91022 0.05543 0.0
H338 H 0.71385 0.96840 0.07324 0.0
H339 H 0.75898 0.92160 0.07877 0.0
H340 H 0.58793 0.81247 0.15587 0.0
H341 H 0.57663 0.77992 0.13465 0.0
H342 H 0.56050 0.80407 0.19436 0.0
H343 H 0.52902 0.79332 0.25307 0.0
H344 H 0.58795 0.73069 0.28998 0.0
H345 H 0.61942 0.74153 0.23140 0.0
H346 H 0.51881 0.76564 0.31396 0.0
H347 H 0.56536 0.72247 0.33120 0.0
H348 H 0.12799 0.03754 0.06266 0.0
C349 C 0.14804 0.06554 0.10007 0.0
H350 H 0.12487 0.03484 0.10941 0.0
H351 H 0.14859 0.07791 0.08013 0.0
C352 C 0.12542 0.04726 0.08974 0.0
H353 H 0.14532 0.07541 0.12689 0.0
C354 C 0.17319 0.04988 0.09964 0.0
C355 C 0.19620 0.06708 0.10730 0.0
H356 H 0.17522 0.03915 0.07343 0.0
H357 H 0.17280 0.03822 0.12070 0.0
H358 H 0.19672 0.07807 0.08553 0.0
H359 H 0.19345 0.07835 0.13279 0.0
C360 C 0.22127 0.05304 0.10928 0.0
H361 H 0.22128 0.04287 0.13216 0.0
H362 H 0.23411 0.06576 0.11447 0.0
H363 H 0.95562 0.09765 0.12759 0.0
C364 C 0.98203 0.11771 0.09720 0.0
H365 H 0.95100 0.09476 0.08006 0.0
H366 H 0.99496 0.11785 0.11837 0.0
C367 C 0.96397 0.09490 0.10096 0.0
H368 H 0.99052 0.11480 0.07082 0.0
C369 C 0.96736 0.14394 0.10149 0.0
C370 C 0.98448 0.16717 0.10037 0.0
H371 H 0.95798 0.14617 0.12704 0.0
H372 H 0.95508 0.14396 0.07931 0.0
H373 H 0.99613 0.16730 0.12324 0.0
H374 H 0.99440 0.16419 0.07544 0.0
C375 C 0.97130 0.19329 0.10240 0.0
H376 H 0.96041 0.19369 0.07863 0.0
H377 H 0.98386 0.20618 0.10115 0.0
H378 H 0.04297 0.90556 0.10055 0.0
C379 C 0.02426 0.88562 0.05030 0.0
H380 H 0.05613 0.90857 0.05877 0.0
H381 H 0.00800 0.88543 0.06398 0.0
C382 C 0.03988 0.90839 0.07218 0.0
H383 H 0.02098 0.88860 0.02216 0.0
C384 C 0.03846 0.85938 0.05093 0.0
C385 C 0.02327 0.83618 0.03186 0.0
H386 H 0.04271 0.85707 0.07900 0.0
H387 H 0.05430 0.85941 0.03589 0.0
H388 H 0.00790 0.83599 0.04780 0.0
H389 H 0.01835 0.83924 0.00443 0.0
C390 C 0.03646 0.81006 0.02964 0.0
H391 H 0.05128 0.80971 0.01225 0.0
H392 H 0.02522 0.79719 0.01695 0.0
H393 H 0.87615 0.94552 0.10873 0.0
C394 C 0.85564 0.97035 0.07282 0.0
H395 H 0.87939 0.93627 0.06164 0.0
H396 H 0.85482 0.98550 0.09355 0.0
C397 C 0.87859 0.95143 0.08210 0.0
H398 H 0.85821 0.97642 0.04646 0.0
C399 C 0.83075 0.95682 0.07239 0.0
C400 C 0.80742 0.97504 0.06572 0.0
H401 H 0.82887 0.94974 0.09809 0.0
H402 H 0.83137 0.94224 0.05058 0.0
H403 H 0.80667 0.98905 0.08822 0.0
H404 H 0.81000 0.98271 0.04079 0.0
C405 C 0.78259 0.96282 0.06297 0.0
H406 H 0.78279 0.94953 0.03942 0.0
H407 H 0.76952 0.97599 0.05851 0.0
H408 H 0.46319 0.41456 0.71428 0.0
H409 H 0.48793 0.36751 0.69633 0.0
H410 H 0.47755 0.37737 0.78754 0.0
H411 H 0.45462 0.37399 0.74246 0.0
H412 H 0.49311 0.28893 0.79691 0.0
H413 H 0.46837 0.33597 0.81485 0.0
H414 H 0.47874 0.32612 0.72364 0.0
H415 H 0.50168 0.32950 0.76873 0.0
C416 C 0.47812 0.40640 0.72061 0.0
C417 C 0.48827 0.37857 0.72265 0.0
C418 C 0.47275 0.36576 0.75406 0.0
C419 C 0.47818 0.29709 0.79058 0.0
C420 C 0.46803 0.32492 0.78854 0.0
C421 C 0.48355 0.33773 0.75713 0.0
H422 H 0.57979 0.44886 0.74057 0.0
H423 H 0.62794 0.45188 0.71473 0.0
H424 H 0.62292 0.47734 0.80248 0.0
H425 H 0.61888 0.44208 0.77966 0.0
H426 H 0.71077 0.47259 0.81556 0.0
H427 H 0.66263 0.46957 0.84140 0.0
H428 H 0.66764 0.44410 0.75365 0.0
H429 H 0.67168 0.47937 0.77648 0.0
C430 C 0.59072 0.46139 0.73667 0.0
C431 C 0.61926 0.46389 0.73607 0.0
C432 C 0.63082 0.45905 0.77812 0.0
C433 C 0.69984 0.46006 0.81947 0.0
C434 C 0.67130 0.45756 0.82006 0.0
C435 C 0.65974 0.46239 0.77801 0.0
H436 H 0.56521 0.49446 0.49197 0.0
H437 H 0.60906 0.49725 0.53466 0.0
H438 H 0.61599 0.45685 0.46017 0.0
H439 H 0.60837 0.49350 0.46388 0.0
H440 H 0.70356 0.45965 0.47467 0.0
H441 H 0.65971 0.45686 0.43197 0.0
H442 H 0.65278 0.49725 0.50647 0.0
H443 H 0.66040 0.46060 0.50275 0.0
C444 C 0.57567 0.48387 0.50549 0.0
C445 C 0.60357 0.48202 0.51686 0.0
C446 C 0.62021 0.47841 0.47760 0.0
C447 C 0.69310 0.47024 0.46114 0.0
C448 C 0.66520 0.47209 0.44977 0.0
C449 C 0.64857 0.47570 0.48904 0.0
H450 H 0.42574 0.52699 0.42095 0.0
H451 H 0.37752 0.52514 0.44723 0.0
H452 H 0.37895 0.56226 0.38301 0.0
H453 H 0.38711 0.52569 0.37883 0.0
H454 H 0.29161 0.55813 0.36659 0.0
H455 H 0.33982 0.55998 0.34031 0.0
H456 H 0.33840 0.52286 0.40454 0.0
H457 H 0.33024 0.55943 0.40872 0.0
C458 C 0.41345 0.53804 0.43372 0.0
C459 C 0.38467 0.53979 0.43592 0.0
C460 C 0.37331 0.54125 0.39260 0.0
C461 C 0.30389 0.54708 0.35383 0.0
C462 C 0.33268 0.54533 0.35163 0.0
C463 C 0.34404 0.54387 0.39495 0.0
H464 H 0.43905 0.53340 0.68054 0.0
H465 H 0.39528 0.53616 0.63798 0.0
H466 H 0.38743 0.50673 0.71063 0.0
H467 H 0.39599 0.54194 0.70881 0.0
H468 H 0.30007 0.51908 0.69651 0.0
H469 H 0.34384 0.51632 0.73907 0.0
H470 H 0.35169 0.54575 0.66642 0.0
H471 H 0.34313 0.51053 0.66824 0.0
C472 C 0.42832 0.52233 0.66644 0.0
C473 C 0.40040 0.52260 0.65502 0.0
C474 C 0.38376 0.52651 0.69429 0.0
C475 C 0.31080 0.53015 0.71061 0.0
C476 C 0.33872 0.52988 0.72203 0.0
C477 C 0.35536 0.52597 0.68276 0.0
H478 H 0.53821 0.58479 0.44534 0.0
H479 H 0.50273 0.61535 0.41210 0.0
H480 H 0.54162 0.64931 0.45688 0.0
H481 H 0.54541 0.62327 0.41066 0.0
H482 H 0.51340 0.71830 0.38715 0.0
H483 H 0.54888 0.68775 0.42039 0.0
H484 H 0.50999 0.65378 0.37562 0.0
H485 H 0.50620 0.67983 0.42183 0.0
C486 C 0.52639 0.59774 0.45387 0.0
C487 C 0.51298 0.62056 0.43627 0.0
C488 C 0.53263 0.63973 0.42460 0.0
C489 C 0.52522 0.70535 0.37863 0.0
C490 C 0.53863 0.68254 0.39622 0.0
C491 C 0.51897 0.66337 0.40789 0.0
H492 H 0.45825 0.43668 0.49236 0.0
H493 H 0.49758 0.40650 0.45767 0.0
H494 H 0.46385 0.37336 0.50181 0.0
H495 H 0.45677 0.39219 0.45639 0.0
H496 H 0.50165 0.29846 0.42933 0.0
H497 H 0.46232 0.32864 0.46403 0.0
H498 H 0.49605 0.36178 0.41988 0.0
H499 H 0.50313 0.34296 0.46530 0.0
C500 C 0.47162 0.42668 0.50036 0.0
C501 C 0.48809 0.40329 0.48182 0.0
C502 C 0.47153 0.37960 0.46968 0.0
C503 C 0.48828 0.30846 0.42134 0.0
C504 C 0.47180 0.33186 0.43987 0.0
C505 C 0.48836 0.35554 0.45201 0.0
H506 H 0.51716 0.56399 0.69263 0.0
H507 H 0.55160 0.60096 0.69336 0.0
H508 H 0.49876 0.62613 0.68907 0.0
H509 H 0.51432 0.60809 0.73059 0.0
H510 H 0.53086 0.70747 0.72935 0.0
H511 H 0.49643 0.67050 0.72863 0.0
H512 H 0.54927 0.64532 0.73292 0.0
H513 H 0.53370 0.66337 0.69140 0.0
C514 C 0.52221 0.57569 0.67616 0.0
C515 C 0.53464 0.60174 0.68138 0.0
C516 C 0.51790 0.62237 0.70885 0.0
C517 C 0.52581 0.69577 0.74583 0.0
C518 C 0.51338 0.66972 0.74061 0.0
C519 C 0.53012 0.64909 0.71314 0.0
