data_{}
_symmetry_space_group_name_H-M    P1
_symmetry_Int_Tables_number       1
_symmetry_cell_setting            triclinic
loop_
_symmetry_equiv_pos_as_xyz
'x, y, z'
_cell_length_a     68.676
_cell_length_b     70.764
_cell_length_c     35.425
_cell_angle_alpha  89.200
_cell_angle_beta   89.182
_cell_angle_gamma  81.595
loop_
_atom_site_label
_atom_site_type_symbol
_atom_site_fract_x
_atom_site_fract_y
_atom_site_fract_z
_atom_type_partial_charge
Cu0 Cu 0.01947 0.55523 0.00010 0.0
C1 C 0.05590 0.55127 0.04757 0.0
C2 C 0.06725 0.55607 0.07726 0.0
C3 C 0.05874 0.56938 0.10233 0.0
H4 H 0.97736 0.56838 0.97152 0.0
H5 H 0.00601 0.52457 0.88845 0.0
H6 H 0.05527 0.55198 0.94545 0.0
H7 H 0.05219 0.60414 0.89747 0.0
H8 H 0.02623 0.61369 0.93900 0.0
C9 C 0.03917 0.57693 0.09603 0.0
C10 C 0.98972 0.54572 0.05881 0.0
C11 C 0.98222 0.53377 0.08529 0.0
C12 C 0.99112 0.51507 0.08708 0.0
C13 C 0.00685 0.50962 0.06248 0.0
N14 N 0.00143 0.55128 0.95879 0.0
N15 N 0.00996 0.53816 0.93426 0.0
H16 H 0.06157 0.54208 0.03022 0.0
N17 N 0.03375 0.57093 0.96453 0.0
N18 N 0.02500 0.58900 0.96286 0.0
H19 H 0.98367 0.55848 0.05629 0.0
H20 H 0.08038 0.55030 0.07992 0.0
H21 H 0.01271 0.49676 0.06274 0.0
H22 H 0.03293 0.58588 0.11329 0.0
H23 H 0.98675 0.50632 0.10427 0.0
N24 N 0.03751 0.55917 0.04295 0.0
N25 N 0.02898 0.57229 0.06748 0.0
N26 N 0.00518 0.53952 0.03721 0.0
N27 N 0.01394 0.52145 0.03888 0.0
C28 C 0.98304 0.55918 0.95418 0.0
C29 C 0.97169 0.55438 0.92448 0.0
C30 C 0.98020 0.54108 0.89941 0.0
C31 C 0.99990 0.53353 0.90571 0.0
C32 C 0.04922 0.56473 0.94293 0.0
C33 C 0.05672 0.57668 0.91645 0.0
C34 C 0.04782 0.59538 0.91467 0.0
C35 C 0.03209 0.60083 0.93926 0.0
H36 H 0.95856 0.56015 0.92183 0.0
Cu37 Cu 0.53969 0.02828 0.00115 0.0
C38 C 0.54348 0.99293 0.95444 0.0
C39 C 0.53845 0.98197 0.92474 0.0
C40 C 0.52479 0.99033 0.89968 0.0
H41 H 0.52646 0.06920 0.03053 0.0
H42 H 0.57142 0.04109 0.11356 0.0
H43 H 0.54276 0.99355 0.05655 0.0
H44 H 0.48898 0.99695 0.10456 0.0
H45 H 0.47932 0.02219 0.06304 0.0
C46 C 0.51715 0.00935 0.90599 0.0
C47 C 0.54973 0.05704 0.94322 0.0
C48 C 0.56212 0.06422 0.91674 0.0
C49 C 0.58134 0.05545 0.91494 0.0
C50 C 0.58684 0.04015 0.93953 0.0
N51 N 0.54390 0.04574 0.04324 0.0
N52 N 0.55737 0.03736 0.06776 0.0
H53 H 0.55293 0.98736 0.97177 0.0
N54 N 0.52338 0.01456 0.03749 0.0
N55 N 0.50481 0.02318 0.03918 0.0
H56 H 0.53662 0.06301 0.94575 0.0
H57 H 0.54429 0.96920 0.92208 0.0
H58 H 0.60006 0.03438 0.93926 0.0
H59 H 0.50797 0.01547 0.88874 0.0
H60 H 0.59040 0.05961 0.89774 0.0
N61 N 0.53548 0.01083 0.95906 0.0
N62 N 0.52201 0.01920 0.93455 0.0
N63 N 0.55600 0.04201 0.96482 0.0
N64 N 0.57457 0.03338 0.96313 0.0
C65 C 0.53590 0.06363 0.04787 0.0
C66 C 0.54094 0.07459 0.07756 0.0
C67 C 0.55460 0.06623 0.10262 0.0
C68 C 0.56223 0.04721 0.09631 0.0
C69 C 0.52965 0.99990 0.05909 0.0
C70 C 0.51727 0.99234 0.08556 0.0
C71 C 0.49804 0.00111 0.08736 0.0
C72 C 0.49255 0.01641 0.06278 0.0
H73 H 0.53509 0.08737 0.08023 0.0
C74 C 0.52254 0.59022 0.49716 0.0
C75 C 0.51802 0.57164 0.49936 0.0
C76 C 0.53849 0.56223 0.44923 0.0
C77 C 0.54412 0.58019 0.44627 0.0
C78 C 0.53610 0.59430 0.47033 0.0
Cu79 Cu 0.52152 0.53028 0.48732 0.0
C80 C 0.53236 0.46967 0.50089 0.0
C81 C 0.51756 0.46511 0.52544 0.0
C82 C 0.50399 0.47995 0.53854 0.0
C83 C 0.50550 0.49821 0.52832 0.0
C84 C 0.53265 0.48841 0.49065 0.0
C85 C 0.56224 0.52607 0.49578 0.0
H86 H 0.50911 0.56881 0.51786 0.0
H87 H 0.54358 0.55295 0.43200 0.0
H88 H 0.55333 0.58268 0.42803 0.0
H89 H 0.53974 0.60644 0.46859 0.0
C90 C 0.48087 0.54703 0.49951 0.0
H91 H 0.51690 0.45254 0.53267 0.0
H92 H 0.49377 0.47742 0.55446 0.0
H93 H 0.49639 0.50797 0.53825 0.0
H94 H 0.54226 0.49118 0.47355 0.0
N95 N 0.52580 0.55774 0.47639 0.0
N96 N 0.51964 0.50302 0.50412 0.0
O97 O 0.54929 0.52267 0.47309 0.0
O98 O 0.55911 0.53392 0.52712 0.0
O99 O 0.49645 0.53915 0.51574 0.0
O100 O 0.47897 0.54956 0.46489 0.0
C101 C 0.12893 0.62400 0.25447 0.0
C102 C 0.13476 0.60582 0.27859 0.0
C103 C 0.14836 0.60639 0.31260 0.0
C104 C 0.15437 0.58831 0.33693 0.0
C105 C 0.16803 0.58902 0.37086 0.0
C106 C 0.17565 0.60777 0.38030 0.0
C107 C 0.16958 0.62584 0.35606 0.0
C108 C 0.15595 0.62514 0.32219 0.0
C109 C 0.19083 0.59072 0.43766 0.0
C110 C 0.20236 0.59597 0.47178 0.0
C111 C 0.22497 0.59333 0.47012 0.0
C112 C 0.23621 0.60202 0.50116 0.0
C113 C 0.22509 0.61120 0.53593 0.0
C114 C 0.20259 0.61217 0.53914 0.0
C115 C 0.19122 0.60457 0.50698 0.0
C116 C 0.16857 0.60697 0.50866 0.0
C117 C 0.23615 0.58347 0.43598 0.0
C118 C 0.23644 0.62001 0.56672 0.0
C119 C 0.25853 0.60180 0.49735 0.0
C120 C 0.28289 0.62366 0.48706 0.0
C121 C 0.29816 0.60577 0.49372 0.0
C122 C 0.32018 0.60762 0.49546 0.0
C123 C 0.32689 0.62734 0.49055 0.0
C124 C 0.31162 0.64522 0.48358 0.0
C125 C 0.28960 0.64337 0.48184 0.0
C126 C 0.34891 0.62914 0.49269 0.0
C127 C 0.36408 0.61121 0.49984 0.0
C128 C 0.19128 0.62170 0.57331 0.0
C129 C 0.17961 0.61397 0.63661 0.0
C130 C 0.17061 0.63517 0.63869 0.0
C131 C 0.15540 0.64187 0.66981 0.0
C132 C 0.14919 0.62733 0.69867 0.0
C133 C 0.15824 0.60615 0.69660 0.0
C134 C 0.17347 0.59945 0.66554 0.0
C135 C 0.13385 0.63391 0.72960 0.0
C136 C 0.12763 0.61922 0.75810 0.0
O137 O 0.18883 0.60866 0.41365 0.0
O138 O 0.19375 0.60722 0.60510 0.0
O139 O 0.26130 0.62193 0.48659 0.0
H140 H 0.13468 0.63779 0.26190 0.0
H141 H 0.12904 0.59201 0.27126 0.0
H142 H 0.14874 0.57443 0.32984 0.0
H143 H 0.17249 0.57567 0.38895 0.0
H144 H 0.17519 0.63973 0.36323 0.0
H145 H 0.15148 0.63850 0.30419 0.0
H146 H 0.19935 0.57815 0.42185 0.0
H147 H 0.17574 0.58742 0.44709 0.0
H148 H 0.16299 0.61682 0.53289 0.0
H149 H 0.16355 0.59245 0.51337 0.0
H150 H 0.16246 0.61348 0.48088 0.0
H151 H 0.22577 0.58388 0.41103 0.0
H152 H 0.24177 0.56796 0.44380 0.0
H153 H 0.24917 0.59107 0.42793 0.0
H154 H 0.22564 0.62697 0.58894 0.0
H155 H 0.24475 0.63124 0.55325 0.0
H156 H 0.24738 0.60837 0.58053 0.0
H157 H 0.26584 0.59761 0.52555 0.0
H158 H 0.26497 0.59144 0.47450 0.0
H159 H 0.29314 0.59119 0.49751 0.0
H160 H 0.33151 0.59440 0.50048 0.0
H161 H 0.31661 0.65981 0.47980 0.0
H162 H 0.27824 0.65659 0.47684 0.0
H163 H 0.35398 0.64371 0.48904 0.0
H164 H 0.35897 0.59667 0.50347 0.0
H165 H 0.19733 0.63520 0.58164 0.0
H166 H 0.17502 0.62534 0.56610 0.0
H167 H 0.17511 0.64585 0.61707 0.0
H168 H 0.14867 0.65755 0.67140 0.0
H169 H 0.15361 0.59542 0.71800 0.0
H170 H 0.18009 0.58376 0.66379 0.0
H171 H 0.12710 0.64958 0.73138 0.0
H172 H 0.13442 0.60357 0.75621 0.0
C173 C 0.61110 0.13307 0.25483 0.0
C174 C 0.62955 0.13476 0.27805 0.0
C175 C 0.62797 0.14819 0.31212 0.0
C176 C 0.64630 0.15008 0.33555 0.0
C177 C 0.64457 0.16360 0.36954 0.0
C178 C 0.62453 0.17520 0.37995 0.0
C179 C 0.60621 0.17326 0.35661 0.0
C180 C 0.60793 0.15976 0.32267 0.0
C181 C 0.64113 0.18628 0.43648 0.0
C182 C 0.63483 0.19873 0.47089 0.0
C183 C 0.63592 0.22026 0.46914 0.0
C184 C 0.62607 0.23318 0.50065 0.0
C185 C 0.61734 0.22433 0.53586 0.0
C186 C 0.61799 0.20254 0.53907 0.0
C187 C 0.62671 0.18972 0.50650 0.0
C188 C 0.62588 0.16810 0.50825 0.0
C189 C 0.64534 0.22901 0.43453 0.0
C190 C 0.60737 0.23739 0.56712 0.0
C191 C 0.62467 0.25497 0.49688 0.0
C192 C 0.60017 0.28363 0.48775 0.0
C193 C 0.61763 0.29461 0.49353 0.0
C194 C 0.61410 0.31657 0.49542 0.0
C195 C 0.59312 0.32749 0.49152 0.0
C196 C 0.57568 0.31650 0.48541 0.0
C197 C 0.57921 0.29455 0.48353 0.0
C198 C 0.58964 0.34943 0.49380 0.0
C199 C 0.60715 0.36031 0.50008 0.0
C200 C 0.60892 0.19358 0.57369 0.0
C201 C 0.61781 0.18045 0.63657 0.0
C202 C 0.59645 0.17634 0.63971 0.0
C203 C 0.59060 0.16294 0.67113 0.0
C204 C 0.60615 0.15365 0.69924 0.0
C205 C 0.62749 0.15782 0.69612 0.0
C206 C 0.63333 0.17124 0.66476 0.0
C207 C 0.60044 0.14010 0.73047 0.0
C208 C 0.61615 0.13077 0.75821 0.0
O209 O 0.62265 0.18829 0.41337 0.0
O210 O 0.62378 0.19279 0.60476 0.0
O211 O 0.60355 0.26213 0.48714 0.0
H212 H 0.59636 0.14174 0.26297 0.0
H213 H 0.64432 0.12611 0.27000 0.0
H214 H 0.66113 0.14150 0.32775 0.0
H215 H 0.65811 0.16501 0.38697 0.0
H216 H 0.59137 0.18181 0.36449 0.0
H217 H 0.59439 0.15834 0.30533 0.0
H218 H 0.65357 0.19183 0.42005 0.0
H219 H 0.64567 0.17079 0.44571 0.0
H220 H 0.61606 0.16482 0.53296 0.0
H221 H 0.64134 0.15998 0.51221 0.0
H222 H 0.61957 0.16356 0.48079 0.0
H223 H 0.64568 0.21895 0.40959 0.0
H224 H 0.66104 0.23108 0.44158 0.0
H225 H 0.63650 0.24343 0.42690 0.0
H226 H 0.60093 0.22836 0.58967 0.0
H227 H 0.59509 0.24799 0.55423 0.0
H228 H 0.61865 0.24552 0.58036 0.0
H229 H 0.62848 0.26119 0.52489 0.0
H230 H 0.63496 0.25897 0.47352 0.0
H231 H 0.63315 0.28648 0.49658 0.0
H232 H 0.62701 0.32473 0.49980 0.0
H233 H 0.56015 0.32461 0.48238 0.0
H234 H 0.56631 0.28636 0.47917 0.0
H235 H 0.57414 0.35761 0.49090 0.0
H236 H 0.62263 0.35209 0.50296 0.0
H237 H 0.59446 0.20248 0.58272 0.0
H238 H 0.60633 0.17847 0.56663 0.0
H239 H 0.58502 0.18310 0.61864 0.0
H240 H 0.57480 0.15983 0.67349 0.0
H241 H 0.63898 0.15092 0.71697 0.0
H242 H 0.64915 0.17425 0.66224 0.0
H243 H 0.58466 0.13696 0.73302 0.0
H244 H 0.63192 0.13395 0.75555 0.0
C245 C 0.91470 0.48493 0.74714 0.0
C246 C 0.91435 0.46675 0.72389 0.0
C247 C 0.90058 0.46731 0.68985 0.0
C248 C 0.90000 0.44923 0.66638 0.0
C249 C 0.88613 0.44993 0.63243 0.0
C250 C 0.87286 0.46868 0.62210 0.0
C251 C 0.87349 0.48675 0.64548 0.0
C252 C 0.88734 0.48606 0.67938 0.0
C253 C 0.86281 0.45163 0.56556 0.0
C254 C 0.84970 0.45687 0.53119 0.0
C255 C 0.82789 0.45422 0.53298 0.0
C256 C 0.81403 0.46290 0.50153 0.0
C257 C 0.82238 0.47210 0.46632 0.0
C258 C 0.84459 0.47307 0.46305 0.0
C259 C 0.85825 0.46548 0.49558 0.0
C260 C 0.88017 0.46788 0.49378 0.0
C261 C 0.81969 0.44436 0.56759 0.0
C262 C 0.80838 0.48090 0.43511 0.0
C263 C 0.79178 0.46268 0.50535 0.0
C264 C 0.76083 0.48453 0.51461 0.0
C265 C 0.75096 0.46664 0.50881 0.0
C266 C 0.72838 0.46847 0.50698 0.0
C267 C 0.71573 0.48820 0.51096 0.0
C268 C 0.72562 0.50607 0.51709 0.0
C269 C 0.74819 0.50423 0.51891 0.0
C270 C 0.69317 0.48999 0.50874 0.0
C271 C 0.68340 0.47205 0.50244 0.0
C272 C 0.85303 0.48260 0.42844 0.0
C273 C 0.86702 0.47488 0.36550 0.0
C274 C 0.86963 0.49608 0.36241 0.0
C275 C 0.88282 0.50278 0.33097 0.0
C276 C 0.89341 0.48825 0.30280 0.0
C277 C 0.89074 0.46706 0.30588 0.0
C278 C 0.87753 0.46037 0.33726 0.0
C279 C 0.90676 0.49483 0.27155 0.0
C280 C 0.91740 0.48015 0.24375 0.0
O281 O 0.85942 0.46956 0.58871 0.0
O282 O 0.85492 0.46812 0.39733 0.0
O283 O 0.78294 0.48281 0.51516 0.0
H284 H 0.90480 0.49871 0.73907 0.0
H285 H 0.92422 0.45294 0.73188 0.0
H286 H 0.90982 0.43536 0.67413 0.0
H287 H 0.88569 0.43659 0.61497 0.0
H288 H 0.86370 0.50064 0.63766 0.0
H289 H 0.88779 0.49942 0.69675 0.0
H290 H 0.85809 0.43905 0.58196 0.0
H291 H 0.87890 0.44833 0.55627 0.0
H292 H 0.88279 0.47774 0.46908 0.0
H293 H 0.88957 0.45336 0.48975 0.0
H294 H 0.88433 0.47440 0.52124 0.0
H295 H 0.82994 0.44477 0.59251 0.0
H296 H 0.81874 0.42885 0.56050 0.0
H297 H 0.80438 0.45195 0.57528 0.0
H298 H 0.81708 0.48786 0.41256 0.0
H299 H 0.79669 0.49213 0.44806 0.0
H300 H 0.80094 0.46926 0.42186 0.0
H301 H 0.78574 0.45849 0.47735 0.0
H302 H 0.78846 0.45232 0.52870 0.0
H303 H 0.76036 0.45206 0.50570 0.0
H304 H 0.72103 0.45525 0.50260 0.0
H305 H 0.71623 0.52066 0.52017 0.0
H306 H 0.75556 0.51746 0.52328 0.0
H307 H 0.68371 0.50455 0.51170 0.0
H308 H 0.69289 0.45751 0.49951 0.0
H309 H 0.84291 0.49610 0.41947 0.0
H310 H 0.86819 0.48624 0.43547 0.0
H311 H 0.86191 0.50676 0.38352 0.0
H312 H 0.88482 0.51847 0.32864 0.0
H313 H 0.89860 0.45634 0.28498 0.0
H314 H 0.87563 0.44467 0.33975 0.0
H315 H 0.90879 0.51051 0.26903 0.0
H316 H 0.91533 0.46449 0.24638 0.0
C317 C 0.46475 0.92681 0.74746 0.0
C318 C 0.48320 0.91989 0.72337 0.0
C319 C 0.48161 0.90691 0.68938 0.0
C320 C 0.49994 0.89982 0.66507 0.0
C321 C 0.49821 0.88679 0.63117 0.0
C322 C 0.47816 0.88087 0.62171 0.0
C323 C 0.45984 0.88802 0.64592 0.0
C324 C 0.46157 0.90102 0.67977 0.0
C325 C 0.49476 0.86508 0.56440 0.0
C326 C 0.48846 0.85442 0.53028 0.0
C327 C 0.48954 0.83258 0.53198 0.0
C328 C 0.47969 0.82246 0.50094 0.0
C329 C 0.47096 0.83378 0.46614 0.0
C330 C 0.47161 0.85539 0.46290 0.0
C331 C 0.48034 0.86573 0.49506 0.0
C332 C 0.47952 0.88758 0.49334 0.0
C333 C 0.49895 0.82116 0.56614 0.0
C334 C 0.46098 0.82356 0.43536 0.0
C335 C 0.47827 0.80107 0.50478 0.0
C336 C 0.45377 0.77935 0.51507 0.0
C337 C 0.47122 0.76342 0.50846 0.0
C338 C 0.46769 0.74247 0.50674 0.0
C339 C 0.44670 0.73750 0.51164 0.0
C340 C 0.42926 0.75344 0.51857 0.0
C341 C 0.43280 0.77439 0.52029 0.0
C342 C 0.44321 0.71655 0.50952 0.0
C343 C 0.46072 0.70070 0.50241 0.0
C344 C 0.46255 0.86692 0.42871 0.0
C345 C 0.47144 0.87753 0.36540 0.0
C346 C 0.45008 0.88770 0.36329 0.0
C347 C 0.44424 0.90276 0.33214 0.0
C348 C 0.45979 0.90763 0.30329 0.0
C349 C 0.48113 0.89740 0.30540 0.0
C350 C 0.48696 0.88233 0.33648 0.0
C351 C 0.45409 0.92280 0.27233 0.0
C352 C 0.46980 0.92767 0.24384 0.0
O353 O 0.47627 0.86832 0.58838 0.0
O354 O 0.47741 0.86349 0.39694 0.0
O355 O 0.45715 0.79990 0.51551 0.0
H356 H 0.45000 0.92232 0.74002 0.0
H357 H 0.49797 0.92435 0.73071 0.0
H358 H 0.51478 0.90419 0.67217 0.0
H359 H 0.51174 0.88154 0.61310 0.0
H360 H 0.44500 0.88367 0.63875 0.0
H361 H 0.44803 0.90629 0.69776 0.0
H362 H 0.50719 0.85600 0.58023 0.0
H363 H 0.49930 0.87929 0.55495 0.0
H364 H 0.46969 0.89366 0.46910 0.0
H365 H 0.49497 0.89133 0.48865 0.0
H366 H 0.47320 0.89392 0.52111 0.0
H367 H 0.49929 0.83112 0.59107 0.0
H368 H 0.51465 0.81464 0.55835 0.0
H369 H 0.49011 0.80925 0.57420 0.0
H370 H 0.45454 0.83441 0.41311 0.0
H371 H 0.44870 0.81643 0.44883 0.0
H372 H 0.47226 0.81223 0.42158 0.0
H373 H 0.48208 0.79377 0.47659 0.0
H374 H 0.48856 0.79415 0.52765 0.0
H375 H 0.48674 0.76715 0.50467 0.0
H376 H 0.48059 0.73065 0.50175 0.0
H377 H 0.41374 0.74974 0.52234 0.0
H378 H 0.41990 0.78623 0.52526 0.0
H379 H 0.42771 0.71277 0.51316 0.0
H380 H 0.47621 0.70452 0.49880 0.0
H381 H 0.44808 0.86212 0.42037 0.0
H382 H 0.45997 0.88276 0.43590 0.0
H383 H 0.43865 0.88418 0.38489 0.0
H384 H 0.42844 0.91035 0.33052 0.0
H385 H 0.49262 0.90105 0.28400 0.0
H386 H 0.50278 0.87484 0.33826 0.0
H387 H 0.43831 0.93042 0.27052 0.0
H388 H 0.48557 0.92002 0.24575 0.0
C389 C 0.45340 0.55974 0.50085 0.0
C390 C 0.43393 0.57364 0.50105 0.0
C391 C 0.41447 0.58756 0.50121 0.0
C392 C 0.39500 0.60147 0.50134 0.0
C393 C 0.55361 0.44854 0.50309 0.0
C394 C 0.56723 0.42921 0.50276 0.0
C395 C 0.58083 0.40987 0.50242 0.0
C396 C 0.59442 0.39053 0.50205 0.0
C397 C 0.58990 0.51670 0.50001 0.0
C398 C 0.61067 0.50505 0.50024 0.0
C399 C 0.63145 0.49340 0.50045 0.0
C400 C 0.65223 0.48177 0.50064 0.0
C401 C 0.50396 0.61098 0.50181 0.0
C402 C 0.49171 0.63103 0.50153 0.0
C403 C 0.47948 0.65109 0.50127 0.0
C404 C 0.46727 0.67115 0.50102 0.0
C405 C 0.07115 0.58023 0.87851 0.0
C406 C 0.08326 0.59178 0.85241 0.0
C407 C 0.09537 0.60334 0.82629 0.0
C408 C 0.10745 0.61490 0.80014 0.0
C409 C 0.56606 0.07803 0.87878 0.0
C410 C 0.57828 0.08948 0.85266 0.0
C411 C 0.59052 0.10091 0.82656 0.0
C412 C 0.60277 0.11234 0.80047 0.0
C413 C 0.96887 0.53018 0.12260 0.0
C414 C 0.95765 0.51799 0.14912 0.0
C415 C 0.94641 0.50581 0.17563 0.0
C416 C 0.93515 0.49365 0.20214 0.0
C417 C 0.51327 0.97921 0.12312 0.0
C418 C 0.50060 0.96834 0.14946 0.0
C419 C 0.48795 0.95746 0.17581 0.0
C420 C 0.47531 0.94657 0.20217 0.0
C421 C 0.56727 0.08160 0.13363 0.0
C422 C 0.57921 0.09281 0.15949 0.0
C423 C 0.59116 0.10400 0.18534 0.0
C424 C 0.60312 0.11518 0.21119 0.0
C425 C 0.07482 0.58137 0.13332 0.0
C426 C 0.08667 0.59264 0.15921 0.0
C427 C 0.09853 0.60392 0.18507 0.0
C428 C 0.11040 0.61521 0.21091 0.0
C429 C 0.96515 0.52897 0.86899 0.0
C430 C 0.95419 0.51703 0.84276 0.0
C431 C 0.94323 0.50511 0.81649 0.0
C432 C 0.93228 0.49319 0.79020 0.0
C433 C 0.51202 0.97562 0.86902 0.0
C434 C 0.49961 0.96501 0.84294 0.0
C435 C 0.48723 0.95440 0.81684 0.0
C436 C 0.47485 0.94377 0.79072 0.0
