data_{}
_symmetry_space_group_name_H-M    P1
_symmetry_Int_Tables_number       1
_symmetry_cell_setting            triclinic
loop_
_symmetry_equiv_pos_as_xyz
'x, y, z'
_cell_length_a     85.166
_cell_length_b     84.535
_cell_length_c     36.616
_cell_angle_alpha  88.035
_cell_angle_beta   88.040
_cell_angle_gamma  84.228
loop_
_atom_site_label
_atom_site_type_symbol
_atom_site_fract_x
_atom_site_fract_y
_atom_site_fract_z
_atom_type_partial_charge
O0 O 0.96228 0.49703 0.95881 0.0
Zn1 Zn 0.98398 0.50912 0.97954 0.0
O2 O 0.98560 0.49772 0.93215 0.0
Zn3 Zn 0.01696 0.49188 0.02083 0.0
O4 O 0.02466 0.49622 0.96932 0.0
O5 O 0.00599 0.51565 0.98203 0.0
C6 C 0.98365 0.49176 0.03867 0.0
C7 C 0.01729 0.50924 0.96170 0.0
O8 O 0.01535 0.50329 0.06821 0.0
O9 O 0.03866 0.50398 0.04156 0.0
C10 C 0.97147 0.49392 0.93270 0.0
C11 C 0.02947 0.50708 0.06767 0.0
O12 O 0.97628 0.50478 0.03104 0.0
O13 O 0.99495 0.48536 0.01833 0.0
O14 O 0.47408 0.97453 0.95965 0.0
Zn15 Zn 0.48308 0.99803 0.98049 0.0
O16 O 0.49104 0.98915 0.93240 0.0
Zn17 Zn 0.51787 0.00296 0.01988 0.0
O18 O 0.52104 0.01134 0.96842 0.0
O19 O 0.49562 0.01690 0.98276 0.0
C20 C 0.49312 0.98284 0.03863 0.0
C21 C 0.50783 0.01816 0.96175 0.0
O22 O 0.50991 0.01185 0.06797 0.0
O23 O 0.52687 0.02646 0.04072 0.0
C24 C 0.48276 0.97737 0.93311 0.0
C25 C 0.51819 0.02362 0.06726 0.0
O26 O 0.47991 0.98965 0.03196 0.0
O27 O 0.50533 0.98409 0.01761 0.0
H28 H 0.46356 0.50499 0.53766 0.0
H29 H 0.46765 0.52272 0.53310 0.0
C30 C 0.50332 0.48474 0.48791 0.0
C31 C 0.53289 0.48836 0.47928 0.0
C32 C 0.49573 0.53348 0.52338 0.0
C33 C 0.46807 0.51263 0.52108 0.0
C34 C 0.48817 0.49131 0.49855 0.0
H35 H 0.50473 0.53586 0.53703 0.0
C36 C 0.48502 0.50682 0.51075 0.0
H37 H 0.47983 0.48506 0.49743 0.0
H38 H 0.51471 0.46536 0.46181 0.0
H39 H 0.49623 0.46513 0.46333 0.0
H40 H 0.48624 0.53563 0.53855 0.0
H41 H 0.52113 0.51593 0.50293 0.0
C42 C 0.51594 0.49417 0.48961 0.0
C43 C 0.49764 0.51624 0.51245 0.0
C44 C 0.50523 0.46751 0.47698 0.0
C45 C 0.51278 0.50967 0.50181 0.0
H46 H 0.53740 0.49600 0.46270 0.0
H47 H 0.53331 0.47827 0.46726 0.0
C48 C 0.10132 0.57687 0.26654 0.0
C49 C 0.10584 0.56186 0.29045 0.0
C50 C 0.11657 0.56283 0.32312 0.0
C51 C 0.12124 0.54791 0.34724 0.0
C52 C 0.13202 0.54899 0.37981 0.0
C53 C 0.13812 0.56497 0.38813 0.0
C54 C 0.13342 0.57988 0.36411 0.0
C55 C 0.12265 0.57880 0.33158 0.0
C56 C 0.14997 0.55125 0.44402 0.0
C57 C 0.15906 0.55606 0.47666 0.0
C58 C 0.17720 0.55466 0.47477 0.0
C59 C 0.18607 0.56235 0.50430 0.0
C60 C 0.17699 0.56964 0.53780 0.0
C61 C 0.15893 0.56963 0.54125 0.0
C62 C 0.14995 0.56286 0.51059 0.0
C63 C 0.13178 0.56405 0.51251 0.0
C64 C 0.18632 0.54682 0.44190 0.0
C65 C 0.18595 0.57742 0.56708 0.0
C66 C 0.20400 0.56297 0.50025 0.0
C67 C 0.22363 0.58216 0.48907 0.0
C68 C 0.23581 0.56773 0.49592 0.0
C69 C 0.25347 0.57007 0.49717 0.0
C70 C 0.25892 0.58683 0.49158 0.0
C71 C 0.24674 0.60125 0.48442 0.0
C72 C 0.22908 0.59890 0.48317 0.0
C73 C 0.27657 0.58913 0.49321 0.0
C74 C 0.28867 0.57467 0.50054 0.0
C75 C 0.14969 0.57720 0.57414 0.0
C76 C 0.13999 0.57030 0.63589 0.0
C77 C 0.13280 0.58773 0.63727 0.0
C78 C 0.12045 0.59279 0.66739 0.0
C79 C 0.11530 0.58039 0.69597 0.0
C80 C 0.12253 0.56298 0.69459 0.0
C81 C 0.13489 0.55793 0.66453 0.0
C82 C 0.10285 0.58535 0.72592 0.0
C83 C 0.09768 0.57283 0.75414 0.0
O84 O 0.14852 0.56619 0.42016 0.0
O85 O 0.15148 0.56516 0.60541 0.0
O86 O 0.20631 0.57993 0.48904 0.0
H87 H 0.10592 0.58862 0.27312 0.0
H88 H 0.10126 0.55009 0.28396 0.0
H89 H 0.11673 0.53609 0.34099 0.0
H90 H 0.13548 0.53798 0.39774 0.0
H91 H 0.13790 0.59171 0.37043 0.0
H92 H 0.11918 0.58983 0.31374 0.0
H93 H 0.15686 0.54103 0.42904 0.0
H94 H 0.13781 0.54793 0.45352 0.0
H95 H 0.12720 0.57209 0.53568 0.0
H96 H 0.12770 0.55170 0.51769 0.0
H97 H 0.12703 0.56928 0.48548 0.0
H98 H 0.17813 0.54678 0.41792 0.0
H99 H 0.19076 0.53403 0.44995 0.0
H100 H 0.19682 0.55365 0.43362 0.0
H101 H 0.17719 0.58286 0.58851 0.0
H102 H 0.19271 0.58713 0.55348 0.0
H103 H 0.19463 0.56807 0.58069 0.0
H104 H 0.20970 0.55973 0.52757 0.0
H105 H 0.20926 0.55453 0.47840 0.0
H106 H 0.23174 0.55534 0.50022 0.0
H107 H 0.26251 0.55941 0.50233 0.0
H108 H 0.25079 0.61364 0.48014 0.0
H109 H 0.22002 0.60956 0.47803 0.0
H110 H 0.28068 0.60151 0.48906 0.0
H111 H 0.28452 0.56231 0.50468 0.0
H112 H 0.15453 0.58872 0.58161 0.0
H113 H 0.13669 0.57966 0.56730 0.0
H114 H 0.13655 0.59683 0.61588 0.0
H115 H 0.11508 0.60568 0.66846 0.0
H116 H 0.11868 0.55383 0.71578 0.0
H117 H 0.14018 0.54503 0.66331 0.0
H118 H 0.09745 0.59822 0.72717 0.0
H119 H 0.10311 0.55996 0.75278 0.0
C120 C 0.57479 0.10236 0.26664 0.0
C121 C 0.58969 0.10392 0.28842 0.0
C122 C 0.58873 0.11493 0.32122 0.0
C123 C 0.60354 0.11666 0.34321 0.0
C124 C 0.60246 0.12774 0.37594 0.0
C125 C 0.58660 0.13707 0.38653 0.0
C126 C 0.57180 0.13529 0.36463 0.0
C127 C 0.57287 0.12423 0.33195 0.0
C128 C 0.60023 0.14628 0.44046 0.0
C129 C 0.59545 0.15639 0.47378 0.0
C130 C 0.59683 0.17438 0.47169 0.0
C131 C 0.58921 0.18485 0.50231 0.0
C132 C 0.58197 0.17716 0.53685 0.0
C133 C 0.58198 0.15896 0.54030 0.0
C134 C 0.58870 0.14857 0.50868 0.0
C135 C 0.58752 0.13050 0.51077 0.0
C136 C 0.60462 0.18201 0.43770 0.0
C137 C 0.57425 0.18774 0.56724 0.0
C138 C 0.58859 0.20304 0.49834 0.0
C139 C 0.56955 0.22664 0.48989 0.0
C140 C 0.58386 0.23604 0.49468 0.0
C141 C 0.58154 0.25430 0.49627 0.0
C142 C 0.56490 0.26312 0.49305 0.0
C143 C 0.55060 0.25372 0.48795 0.0
C144 C 0.55293 0.23546 0.48637 0.0
C145 C 0.56262 0.28137 0.49501 0.0
C146 C 0.57697 0.29067 0.50028 0.0
C147 C 0.57446 0.15116 0.57428 0.0
C148 C 0.58131 0.14001 0.63505 0.0
C149 C 0.56402 0.13624 0.63891 0.0
C150 C 0.55899 0.12481 0.66975 0.0
C151 C 0.57129 0.11715 0.69657 0.0
C152 C 0.58858 0.12097 0.69271 0.0
C153 C 0.59359 0.13241 0.66192 0.0
C154 C 0.56638 0.10559 0.72723 0.0
C155 C 0.57881 0.09789 0.75367 0.0
O156 O 0.58539 0.14779 0.41873 0.0
O157 O 0.58641 0.15057 0.60383 0.0
O158 O 0.57176 0.20875 0.48955 0.0
H159 H 0.56313 0.10933 0.27489 0.0
H160 H 0.60138 0.09697 0.28025 0.0
H161 H 0.61528 0.10977 0.33528 0.0
H162 H 0.61339 0.12903 0.39230 0.0
H163 H 0.56006 0.14217 0.37264 0.0
H164 H 0.56193 0.12293 0.31568 0.0
H165 H 0.61037 0.15118 0.42402 0.0
H166 H 0.60352 0.13336 0.44950 0.0
H167 H 0.57953 0.12748 0.53510 0.0
H168 H 0.59977 0.12393 0.51420 0.0
H169 H 0.58233 0.12675 0.48450 0.0
H170 H 0.60466 0.17375 0.41372 0.0
H171 H 0.61731 0.18394 0.44393 0.0
H172 H 0.59785 0.19395 0.43039 0.0
H173 H 0.56885 0.17999 0.58944 0.0
H174 H 0.56461 0.19647 0.55502 0.0
H175 H 0.58353 0.19462 0.57951 0.0
H176 H 0.59181 0.20814 0.52520 0.0
H177 H 0.59697 0.20666 0.47530 0.0
H178 H 0.59616 0.22947 0.49722 0.0
H179 H 0.59212 0.26128 0.49990 0.0
H180 H 0.53829 0.26026 0.48544 0.0
H181 H 0.54234 0.22845 0.48276 0.0
H182 H 0.55033 0.28797 0.49262 0.0
H183 H 0.58924 0.28404 0.50265 0.0
H184 H 0.56303 0.15833 0.58338 0.0
H185 H 0.57203 0.13855 0.56779 0.0
H186 H 0.55498 0.14183 0.61882 0.0
H187 H 0.54620 0.12196 0.67266 0.0
H188 H 0.59766 0.11527 0.71260 0.0
H189 H 0.60640 0.13518 0.65887 0.0
H190 H 0.55360 0.10271 0.73031 0.0
H191 H 0.59158 0.10080 0.75048 0.0
C192 C 0.89951 0.42534 0.73375 0.0
C193 C 0.89796 0.41033 0.71198 0.0
C194 C 0.88703 0.41129 0.67917 0.0
C195 C 0.88531 0.39638 0.65718 0.0
C196 C 0.87432 0.39746 0.62445 0.0
C197 C 0.86506 0.41344 0.61386 0.0
C198 C 0.86682 0.42835 0.63575 0.0
C199 C 0.87780 0.42727 0.66843 0.0
C200 C 0.85592 0.39971 0.55993 0.0
C201 C 0.84589 0.40453 0.52660 0.0
C202 C 0.82802 0.40313 0.52869 0.0
C203 C 0.81763 0.41081 0.49807 0.0
C204 C 0.82527 0.41810 0.46353 0.0
C205 C 0.84334 0.41810 0.46008 0.0
C206 C 0.85365 0.41132 0.49170 0.0
C207 C 0.87158 0.41251 0.48961 0.0
C208 C 0.82045 0.39528 0.56267 0.0
C209 C 0.81477 0.42589 0.43313 0.0
C210 C 0.79958 0.41143 0.50202 0.0
C211 C 0.77616 0.43062 0.51047 0.0
C212 C 0.76683 0.41620 0.50567 0.0
C213 C 0.74871 0.41854 0.50409 0.0
C214 C 0.73995 0.43530 0.50729 0.0
C215 C 0.74928 0.44971 0.51240 0.0
C216 C 0.76741 0.44737 0.51398 0.0
C217 C 0.72184 0.43760 0.50533 0.0
C218 C 0.71260 0.42314 0.50006 0.0
C219 C 0.85108 0.42567 0.42610 0.0
C220 C 0.86214 0.41877 0.36534 0.0
C221 C 0.86589 0.43619 0.36147 0.0
C222 C 0.87724 0.44126 0.33063 0.0
C223 C 0.88484 0.42886 0.30382 0.0
C224 C 0.88105 0.41145 0.30768 0.0
C225 C 0.86969 0.40640 0.33846 0.0
C226 C 0.89631 0.43381 0.27316 0.0
C227 C 0.90395 0.42129 0.24673 0.0
O228 O 0.85442 0.41466 0.58166 0.0
O229 O 0.85166 0.41363 0.39655 0.0
O230 O 0.79392 0.42840 0.51081 0.0
H231 H 0.89259 0.43709 0.72550 0.0
H232 H 0.90486 0.39855 0.72015 0.0
H233 H 0.89216 0.38455 0.66512 0.0
H234 H 0.87304 0.38645 0.60809 0.0
H235 H 0.86000 0.44018 0.62774 0.0
H236 H 0.87909 0.43829 0.68470 0.0
H237 H 0.85105 0.38949 0.57636 0.0
H238 H 0.86874 0.39640 0.55089 0.0
H239 H 0.87458 0.42056 0.46529 0.0
H240 H 0.87811 0.40017 0.48619 0.0
H241 H 0.87530 0.41774 0.51589 0.0
H242 H 0.82865 0.39525 0.58666 0.0
H243 H 0.81854 0.38250 0.55645 0.0
H244 H 0.80860 0.40211 0.56998 0.0
H245 H 0.82246 0.43132 0.41093 0.0
H246 H 0.80610 0.43559 0.44534 0.0
H247 H 0.80794 0.41654 0.42086 0.0
H248 H 0.79452 0.40819 0.47516 0.0
H249 H 0.79599 0.40299 0.52507 0.0
H250 H 0.77335 0.40381 0.50314 0.0
H251 H 0.74178 0.40788 0.50045 0.0
H252 H 0.74278 0.46211 0.51491 0.0
H253 H 0.77435 0.45803 0.51760 0.0
H254 H 0.71528 0.44998 0.50772 0.0
H255 H 0.71919 0.41078 0.49769 0.0
H256 H 0.84396 0.43719 0.41699 0.0
H257 H 0.86359 0.42812 0.43259 0.0
H258 H 0.86034 0.44530 0.38156 0.0
H259 H 0.88006 0.45415 0.32772 0.0
H260 H 0.88670 0.40230 0.28779 0.0
H261 H 0.86694 0.39349 0.34152 0.0
H262 H 0.89917 0.44669 0.27008 0.0
H263 H 0.90107 0.40843 0.24992 0.0
C264 C 0.42496 0.89875 0.73381 0.0
C265 C 0.43985 0.89420 0.70990 0.0
C266 C 0.43889 0.88339 0.67723 0.0
C267 C 0.45370 0.87868 0.65312 0.0
C268 C 0.45262 0.86782 0.62055 0.0
C269 C 0.43676 0.86167 0.61223 0.0
C270 C 0.42196 0.86642 0.63625 0.0
C271 C 0.42304 0.87726 0.66877 0.0
C272 C 0.45039 0.84973 0.55635 0.0
C273 C 0.44561 0.84058 0.52371 0.0
C274 C 0.44700 0.82231 0.52561 0.0
C275 C 0.43937 0.81337 0.49608 0.0
C276 C 0.43213 0.82252 0.46257 0.0
C277 C 0.43214 0.84071 0.45912 0.0
C278 C 0.43886 0.84976 0.48977 0.0
C279 C 0.43768 0.86806 0.48785 0.0
C280 C 0.45479 0.81312 0.55847 0.0
C281 C 0.42441 0.81349 0.43329 0.0
C282 C 0.43875 0.79531 0.50013 0.0
C283 C 0.41971 0.77552 0.51131 0.0
C284 C 0.43402 0.76326 0.50447 0.0
C285 C 0.43170 0.74546 0.50322 0.0
C286 C 0.41506 0.73997 0.50881 0.0
C287 C 0.40076 0.75225 0.51596 0.0
C288 C 0.40309 0.77004 0.51720 0.0
C289 C 0.41278 0.72219 0.50718 0.0
C290 C 0.42713 0.71000 0.49985 0.0
C291 C 0.42463 0.85002 0.42622 0.0
C292 C 0.43147 0.85979 0.36447 0.0
C293 C 0.41418 0.86703 0.36308 0.0
C294 C 0.40915 0.87947 0.33296 0.0
C295 C 0.42146 0.88467 0.30438 0.0
C296 C 0.43874 0.87738 0.30576 0.0
C297 C 0.44375 0.86493 0.33583 0.0
C298 C 0.41654 0.89721 0.27443 0.0
C299 C 0.42897 0.90241 0.24620 0.0
O300 O 0.43555 0.85119 0.58020 0.0
O301 O 0.43657 0.84821 0.39495 0.0
O302 O 0.42192 0.79297 0.51133 0.0
H303 H 0.41329 0.89412 0.72723 0.0
H304 H 0.45154 0.89881 0.71639 0.0
H305 H 0.46544 0.88323 0.65937 0.0
H306 H 0.46355 0.86434 0.60262 0.0
H307 H 0.41022 0.86190 0.62992 0.0
H308 H 0.41210 0.88076 0.68661 0.0
H309 H 0.46053 0.84280 0.57133 0.0
H310 H 0.45368 0.86199 0.54684 0.0
H311 H 0.42969 0.87268 0.46467 0.0
H312 H 0.44993 0.87217 0.48267 0.0
H313 H 0.43249 0.87285 0.51487 0.0
H314 H 0.45482 0.82137 0.58245 0.0
H315 H 0.46747 0.80865 0.55043 0.0
H316 H 0.44801 0.80254 0.56676 0.0
H317 H 0.41901 0.82232 0.41186 0.0
H318 H 0.41478 0.80668 0.44689 0.0
H319 H 0.43369 0.80474 0.41968 0.0
H320 H 0.44197 0.78956 0.47281 0.0
H321 H 0.44713 0.79001 0.52198 0.0
H322 H 0.44632 0.76736 0.50017 0.0
H323 H 0.44228 0.73636 0.49807 0.0
H324 H 0.38845 0.74817 0.52024 0.0
H325 H 0.39251 0.77916 0.52234 0.0
H326 H 0.40049 0.71805 0.51133 0.0
H327 H 0.43941 0.71418 0.49572 0.0
H328 H 0.41319 0.84514 0.41875 0.0
H329 H 0.42219 0.86311 0.43305 0.0
H330 H 0.40514 0.86326 0.38447 0.0
H331 H 0.39636 0.88488 0.33188 0.0
H332 H 0.44782 0.88126 0.28457 0.0
H333 H 0.45656 0.85960 0.33705 0.0
H334 H 0.40376 0.90265 0.27318 0.0
H335 H 0.44174 0.89695 0.24757 0.0
C336 C 0.43335 0.52866 0.47870 0.0
C337 C 0.32951 0.55180 0.52513 0.0
C338 C 0.43996 0.51814 0.50343 0.0
C339 C 0.32743 0.56461 0.50273 0.0
C340 C 0.41578 0.50700 0.51379 0.0
C341 C 0.43119 0.50749 0.52079 0.0
C342 C 0.38005 0.53124 0.48614 0.0
C343 C 0.34851 0.55447 0.46330 0.0
C344 C 0.33668 0.56616 0.47239 0.0
C345 C 0.41782 0.52862 0.47076 0.0
C346 C 0.45670 0.51747 0.51025 0.0
C347 C 0.34134 0.53978 0.51757 0.0
C348 C 0.36350 0.52732 0.47715 0.0
C349 C 0.31451 0.57715 0.50950 0.0
C350 C 0.39168 0.51676 0.47820 0.0
N351 N 0.40833 0.51772 0.48757 0.0
N352 N 0.35095 0.54056 0.48715 0.0
H353 H 0.43942 0.53599 0.46695 0.0
H354 H 0.32300 0.55094 0.54583 0.0
H355 H 0.41000 0.49962 0.52623 0.0
H356 H 0.43594 0.50033 0.53794 0.0
H357 H 0.38037 0.53384 0.51168 0.0
H358 H 0.38287 0.54033 0.47133 0.0
H359 H 0.35482 0.55553 0.44224 0.0
H360 H 0.33506 0.57523 0.45740 0.0
H361 H 0.41340 0.53605 0.45372 0.0
H362 H 0.45994 0.52815 0.50768 0.0
H363 H 0.45841 0.51379 0.53532 0.0
H364 H 0.34275 0.53102 0.53359 0.0
H365 H 0.36122 0.51762 0.49034 0.0
H366 H 0.36318 0.52545 0.45119 0.0
H367 H 0.31033 0.57590 0.53432 0.0
H368 H 0.31860 0.58745 0.50709 0.0
H369 H 0.39142 0.51473 0.45233 0.0
H370 H 0.38797 0.50764 0.49140 0.0
C371 C 0.51514 0.43210 0.52446 0.0
C372 C 0.56684 0.33785 0.46769 0.0
C373 C 0.51824 0.44366 0.49991 0.0
C374 C 0.56453 0.33034 0.49985 0.0
C375 C 0.52295 0.42496 0.45332 0.0
C376 C 0.52215 0.44004 0.46480 0.0
C377 C 0.53153 0.38337 0.48226 0.0
C378 C 0.54049 0.34650 0.51096 0.0
C379 C 0.55172 0.33447 0.52151 0.0
C380 C 0.51581 0.41670 0.51413 0.0
C381 C 0.51657 0.46018 0.51022 0.0
C382 C 0.55603 0.35016 0.45592 0.0
C383 C 0.53037 0.36764 0.46356 0.0
C384 C 0.57552 0.31681 0.51203 0.0
C385 C 0.51957 0.39593 0.46546 0.0
N386 N 0.51957 0.41238 0.47809 0.0
N387 N 0.54278 0.35475 0.47633 0.0
H388 H 0.51252 0.43466 0.54858 0.0
H389 H 0.57570 0.33481 0.45315 0.0
H390 H 0.52574 0.42278 0.42908 0.0
H391 H 0.52432 0.44818 0.44820 0.0
H392 H 0.54210 0.38660 0.47875 0.0
H393 H 0.52930 0.38214 0.50831 0.0
H394 H 0.53163 0.34926 0.52586 0.0
H395 H 0.55045 0.32913 0.54385 0.0
H396 H 0.51372 0.40882 0.53152 0.0
H397 H 0.51948 0.46069 0.53552 0.0
H398 H 0.52392 0.46588 0.49532 0.0
H399 H 0.55787 0.35537 0.43365 0.0
H400 H 0.53161 0.36926 0.43730 0.0
H401 H 0.51996 0.36420 0.46868 0.0
H402 H 0.58521 0.31656 0.49722 0.0
H403 H 0.57813 0.31821 0.53723 0.0
H404 H 0.50911 0.39258 0.47027 0.0
H405 H 0.52140 0.39610 0.43916 0.0
C406 C 0.56809 0.47384 0.52396 0.0
C407 C 0.66911 0.44172 0.46395 0.0
C408 C 0.56123 0.48357 0.49802 0.0
C409 C 0.67338 0.43591 0.49694 0.0
C410 C 0.57809 0.47138 0.45232 0.0
C411 C 0.56627 0.48233 0.46266 0.0
C412 C 0.61433 0.44878 0.48246 0.0
C413 C 0.64723 0.42990 0.51191 0.0
C414 C 0.66280 0.43013 0.52088 0.0
C415 C 0.58007 0.46260 0.51481 0.0
C416 C 0.54781 0.49485 0.50728 0.0
C417 C 0.65359 0.44197 0.45366 0.0
C418 C 0.62550 0.43553 0.46545 0.0
C419 C 0.68993 0.43493 0.50770 0.0
C420 C 0.59794 0.44809 0.46742 0.0
N421 N 0.58556 0.46070 0.47861 0.0
N422 N 0.64240 0.43614 0.47642 0.0
H423 H 0.56461 0.47479 0.54824 0.0
H424 H 0.67657 0.44561 0.44784 0.0
H425 H 0.58138 0.47083 0.42786 0.0
H426 H 0.56143 0.48920 0.44507 0.0
H427 H 0.61805 0.45905 0.47642 0.0
H428 H 0.61392 0.44734 0.50887 0.0
H429 H 0.63999 0.42582 0.52840 0.0
H430 H 0.66605 0.42625 0.54373 0.0
H431 H 0.58476 0.45602 0.53314 0.0
H432 H 0.54909 0.49858 0.53169 0.0
H433 H 0.54781 0.50396 0.49045 0.0
H434 H 0.65076 0.44619 0.43077 0.0
H435 H 0.62504 0.43649 0.43901 0.0
H436 H 0.62203 0.42531 0.47307 0.0
H437 H 0.69577 0.44147 0.49091 0.0
H438 H 0.69037 0.43907 0.53200 0.0
H439 H 0.59437 0.43788 0.47474 0.0
H440 H 0.59891 0.44844 0.44093 0.0
C441 C 0.47009 0.56354 0.48782 0.0
C442 C 0.44980 0.66847 0.52081 0.0
C443 C 0.48451 0.55794 0.49909 0.0
C444 C 0.43714 0.67089 0.49997 0.0
C445 C 0.48376 0.57799 0.54268 0.0
C446 C 0.49123 0.56518 0.52615 0.0
C447 C 0.45558 0.61291 0.52859 0.0
C448 C 0.43086 0.64442 0.51182 0.0
C449 C 0.42777 0.65922 0.49512 0.0
C450 C 0.46210 0.57645 0.50369 0.0
C451 C 0.49262 0.54361 0.48390 0.0
C452 C 0.45358 0.65377 0.53790 0.0
C453 C 0.44783 0.62560 0.55404 0.0
C454 C 0.43258 0.68660 0.48293 0.0
C455 C 0.45977 0.59770 0.55128 0.0
N456 N 0.46844 0.58421 0.53208 0.0
N457 N 0.44447 0.64157 0.53441 0.0
H458 H 0.46555 0.55855 0.46911 0.0
H459 H 0.45608 0.67666 0.52388 0.0
H460 H 0.48867 0.58278 0.56109 0.0
H461 H 0.50125 0.56118 0.53352 0.0
H462 H 0.46505 0.61649 0.51692 0.0
H463 H 0.44838 0.61092 0.50968 0.0
H464 H 0.42432 0.63642 0.50859 0.0
H465 H 0.41910 0.66118 0.48029 0.0
H466 H 0.45216 0.58023 0.49541 0.0
H467 H 0.48995 0.54318 0.45842 0.0
H468 H 0.50391 0.54424 0.48468 0.0
H469 H 0.46250 0.65222 0.55201 0.0
H470 H 0.45472 0.62675 0.57414 0.0
H471 H 0.43802 0.62217 0.56423 0.0
H472 H 0.44131 0.69312 0.48379 0.0
H473 H 0.43033 0.68534 0.45745 0.0
H474 H 0.45005 0.59418 0.56175 0.0
H475 H 0.46606 0.60029 0.57143 0.0
C476 C 0.02947 0.51844 0.92439 0.0
C477 C 0.03959 0.52841 0.89879 0.0
C478 C 0.04973 0.53839 0.87316 0.0
C479 C 0.05989 0.54833 0.84759 0.0
C480 C 0.07013 0.55823 0.82202 0.0
C481 C 0.08039 0.56809 0.79650 0.0
C482 C 0.51820 0.02975 0.92449 0.0
C483 C 0.52809 0.04001 0.89900 0.0
C484 C 0.53798 0.05029 0.87349 0.0
C485 C 0.54781 0.06056 0.84794 0.0
C486 C 0.55760 0.07087 0.82227 0.0
C487 C 0.56734 0.08118 0.79656 0.0
C488 C 0.97142 0.48259 0.07592 0.0
C489 C 0.96118 0.47268 0.10138 0.0
C490 C 0.95093 0.46276 0.12687 0.0
C491 C 0.94074 0.45283 0.15240 0.0
C492 C 0.93059 0.44289 0.17807 0.0
C493 C 0.92049 0.43294 0.20378 0.0
C494 C 0.48278 0.97121 0.07587 0.0
C495 C 0.47296 0.96087 0.10133 0.0
C496 C 0.46314 0.95052 0.12683 0.0
C497 C 0.45332 0.94022 0.15236 0.0
C498 C 0.44349 0.92997 0.17805 0.0
C499 C 0.43366 0.91976 0.20379 0.0
C500 C 0.52164 0.03816 0.09956 0.0
C501 C 0.53099 0.04792 0.12429 0.0
C502 C 0.54036 0.05770 0.14906 0.0
C503 C 0.54967 0.06746 0.17388 0.0
C504 C 0.55894 0.07723 0.19885 0.0
C505 C 0.56818 0.08698 0.22388 0.0
C506 C 0.03779 0.52190 0.09969 0.0
C507 C 0.04740 0.53132 0.12463 0.0
C508 C 0.05702 0.54074 0.14960 0.0
C509 C 0.06666 0.55015 0.17447 0.0
C510 C 0.07639 0.55954 0.19927 0.0
C511 C 0.08614 0.56892 0.22398 0.0
C512 C 0.96310 0.47914 0.90073 0.0
C513 C 0.95337 0.46979 0.87590 0.0
C514 C 0.94364 0.46042 0.85105 0.0
C515 C 0.93396 0.45104 0.82622 0.0
C516 C 0.92433 0.44159 0.80134 0.0
C517 C 0.91474 0.43211 0.77647 0.0
C518 C 0.47937 0.96282 0.90074 0.0
C519 C 0.47013 0.95301 0.87584 0.0
C520 C 0.46088 0.94319 0.85092 0.0
C521 C 0.45160 0.93342 0.82605 0.0
C522 C 0.44225 0.92368 0.80119 0.0
C523 C 0.43286 0.91398 0.77638 0.0
