data_{}
_symmetry_space_group_name_H-M    P1
_symmetry_Int_Tables_number       1
_symmetry_cell_setting            triclinic
loop_
_symmetry_equiv_pos_as_xyz
'x, y, z'
_cell_length_a     61.270
_cell_length_b     32.853
_cell_length_c     67.679
_cell_angle_alpha  94.489
_cell_angle_beta   89.653
_cell_angle_gamma  72.795
loop_
_atom_site_label
_atom_site_type_symbol
_atom_site_fract_x
_atom_site_fract_y
_atom_site_fract_z
_atom_type_partial_charge
C0 C 0.00744 0.05970 0.58902 0.0
C1 C 0.00774 0.02044 0.60017 0.0
C2 C 0.00835 0.02319 0.62297 0.0
C3 C 0.00867 0.06519 0.63462 0.0
C4 C 0.00836 0.10444 0.62347 0.0
C5 C 0.00775 0.10169 0.60067 0.0
H6 H 0.00751 0.98935 0.59155 0.0
H7 H 0.00912 0.06722 0.65150 0.0
H8 H 0.00753 0.13076 0.59241 0.0
C9 C 0.00871 0.03980 0.44440 0.0
C10 C 0.00912 0.99740 0.43273 0.0
C11 C 0.00992 0.99387 0.40990 0.0
C12 C 0.01031 0.03274 0.39873 0.0
C13 C 0.00990 0.07514 0.41040 0.0
C14 C 0.00910 0.07867 0.43323 0.0
H15 H 0.00883 0.96862 0.44100 0.0
H16 H 0.01090 0.03013 0.38183 0.0
H17 H 0.00880 0.11006 0.44187 0.0
Cu18 Cu 0.01829 0.57500 0.72537 0.0
H19 H 0.99447 0.72700 0.70647 0.0
H20 H 0.99163 0.66894 0.72237 0.0
H21 H 0.04369 0.59254 0.69196 0.0
H22 H 0.04724 0.64661 0.67444 0.0
H23 H 0.93668 0.61369 0.74667 0.0
H24 H 0.96673 0.61310 0.72758 0.0
H25 H 0.00935 0.58101 0.77021 0.0
H26 H 0.97928 0.58661 0.79108 0.0
C27 C 0.00995 0.43938 0.70051 0.0
C28 C 0.02065 0.45999 0.68881 0.0
C29 C 0.02179 0.49991 0.69584 0.0
C30 C 0.00337 0.49748 0.72507 0.0
C31 C 0.00221 0.45707 0.71836 0.0
C32 C 0.08387 0.53181 0.76527 0.0
C33 C 0.07055 0.57350 0.76784 0.0
C34 C 0.05282 0.58447 0.75627 0.0
C35 C 0.06085 0.51851 0.73983 0.0
C36 C 0.08021 0.50357 0.75112 0.0
H37 H 0.02708 0.44742 0.67635 0.0
H38 H 0.02865 0.51432 0.68740 0.0
H39 H 0.99686 0.50979 0.73756 0.0
H40 H 0.99573 0.44199 0.72674 0.0
N41 N 0.01729 0.62418 0.70915 0.0
N42 N 0.99117 0.59609 0.74663 0.0
H43 H 0.07382 0.59324 0.77732 0.0
H44 H 0.04301 0.61259 0.75835 0.0
H45 H 0.05696 0.49935 0.73048 0.0
N46 N 0.01399 0.51989 0.71366 0.0
H47 H 0.09007 0.47555 0.74897 0.0
N48 N 0.04773 0.55910 0.74193 0.0
C49 C 0.02171 0.69293 0.68912 0.0
C50 C 0.00477 0.69968 0.70325 0.0
C51 C 0.00337 0.66432 0.71267 0.0
C52 C 0.03337 0.61993 0.69496 0.0
C53 C 0.03593 0.65217 0.68457 0.0
C54 C 0.95441 0.60014 0.77183 0.0
C55 C 0.95129 0.60772 0.75203 0.0
C56 C 0.96937 0.60633 0.74076 0.0
C57 C 0.99449 0.58841 0.76536 0.0
C58 C 0.97641 0.59117 0.77768 0.0
Cu59 Cu 0.01937 0.51254 0.30746 0.0
H60 H 0.99566 0.38697 0.32771 0.0
H61 H 0.99274 0.44822 0.31197 0.0
H62 H 0.04493 0.46667 0.33942 0.0
H63 H 0.04857 0.40860 0.35673 0.0
H64 H 0.93766 0.56466 0.29079 0.0
H65 H 0.96780 0.53178 0.30818 0.0
H66 H 0.01021 0.51659 0.26313 0.0
H67 H 0.98004 0.54449 0.24397 0.0
C68 C 0.01112 0.65738 0.33278 0.0
C69 C 0.02189 0.62484 0.34388 0.0
C70 C 0.02300 0.58367 0.33678 0.0
C71 C 0.00444 0.60666 0.30860 0.0
C72 C 0.00330 0.64835 0.31538 0.0
C73 C 0.08474 0.48292 0.26383 0.0
C74 C 0.07142 0.45605 0.26202 0.0
C75 C 0.05375 0.46476 0.27460 0.0
C76 C 0.06184 0.52176 0.29058 0.0
C77 C 0.08115 0.51520 0.27819 0.0
H78 H 0.02838 0.63023 0.35597 0.0
H79 H 0.02990 0.56161 0.34483 0.0
H80 H 0.99787 0.60162 0.29649 0.0
H81 H 0.99678 0.67066 0.30737 0.0
N82 N 0.01845 0.46443 0.32373 0.0
N83 N 0.99214 0.52166 0.28774 0.0
H84 H 0.07464 0.43270 0.25236 0.0
H85 H 0.04393 0.44756 0.27308 0.0
H86 H 0.05799 0.54522 0.30015 0.0
N87 N 0.01511 0.57241 0.31941 0.0
H88 H 0.09101 0.53226 0.27978 0.0
N89 N 0.04872 0.49575 0.28923 0.0
C90 C 0.02298 0.39071 0.34351 0.0
C91 C 0.00597 0.40283 0.33034 0.0
C92 C 0.00452 0.43977 0.32100 0.0
C93 C 0.03460 0.45076 0.33700 0.0
C94 C 0.03721 0.41564 0.34725 0.0
C95 C 0.95526 0.55856 0.26463 0.0
C96 C 0.95225 0.55439 0.28461 0.0
C97 C 0.97038 0.53564 0.29484 0.0
C98 C 0.99537 0.52571 0.26882 0.0
C99 C 0.97724 0.54307 0.25754 0.0
C100 C 0.77435 0.74027 0.15779 0.0
C101 C 0.77911 0.69997 0.14323 0.0
C102 C 0.76380 0.69975 0.12530 0.0
C103 C 0.76830 0.65963 0.11063 0.0
C104 C 0.75284 0.65970 0.09276 0.0
C105 C 0.73291 0.69982 0.08963 0.0
C106 C 0.72847 0.73992 0.10424 0.0
C107 C 0.74390 0.73987 0.12209 0.0
C108 C 0.72663 0.66132 0.05767 0.0
C109 C 0.71066 0.67180 0.04020 0.0
C110 C 0.68776 0.66157 0.04040 0.0
C111 C 0.67001 0.67957 0.02489 0.0
C112 C 0.67619 0.70311 0.00789 0.0
C113 C 0.70001 0.70968 0.00671 0.0
C114 C 0.71724 0.69407 0.02291 0.0
C115 C 0.74034 0.70376 0.02268 0.0
C116 C 0.68192 0.63657 0.05700 0.0
C117 C 0.65824 0.72134 0.99253 0.0
C118 C 0.64593 0.67465 0.02646 0.0
C119 C 0.60602 0.71772 0.03366 0.0
C120 C 0.60046 0.67565 0.02807 0.0
C121 C 0.57540 0.67552 0.02696 0.0
C122 C 0.55594 0.71747 0.03144 0.0
C123 C 0.56152 0.75950 0.03719 0.0
C124 C 0.58658 0.75962 0.03829 0.0
C125 C 0.53091 0.71725 0.03012 0.0
C126 C 0.52549 0.67512 0.02427 0.0
C127 C 0.70620 0.73399 0.99006 0.0
C128 C 0.72328 0.72136 0.95644 0.0
C129 C 0.71993 0.76981 0.95769 0.0
C130 C 0.73212 0.78855 0.94241 0.0
C131 C 0.74768 0.75874 0.92596 0.0
C132 C 0.75096 0.71030 0.92470 0.0
C133 C 0.73875 0.69159 0.93995 0.0
C134 C 0.76008 0.77721 0.91077 0.0
C135 C 0.77575 0.74706 0.89449 0.0
O136 O 0.71786 0.70036 0.07208 0.0
O137 O 0.71228 0.70272 0.97194 0.0
O138 O 0.63053 0.71807 0.03410 0.0
H139 H 0.75953 0.76975 0.15523 0.0
H140 H 0.79391 0.67042 0.14573 0.0
H141 H 0.78304 0.62994 0.11300 0.0
H142 H 0.75614 0.63009 0.08186 0.0
H143 H 0.71375 0.76965 0.10184 0.0
H144 H 0.74061 0.76951 0.13294 0.0
H145 H 0.72525 0.63147 0.06448 0.0
H146 H 0.74501 0.65727 0.05267 0.0
H147 H 0.74017 0.72734 0.01115 0.0
H148 H 0.75475 0.67293 0.01882 0.0
H149 H 0.74311 0.71833 0.03796 0.0
H150 H 0.69308 0.63862 0.07024 0.0
H151 H 0.68536 0.60162 0.05122 0.0
H152 H 0.66314 0.65050 0.06175 0.0
H153 H 0.66554 0.73949 0.98184 0.0
H154 H 0.64236 0.74400 0.00010 0.0
H155 H 0.65348 0.69409 0.98393 0.0
H156 H 0.64042 0.66499 0.01119 0.0
H157 H 0.64548 0.64985 0.03721 0.0
H158 H 0.61490 0.64465 0.02468 0.0
H159 H 0.57124 0.64442 0.02278 0.0
H160 H 0.54710 0.79052 0.04057 0.0
H161 H 0.59076 0.79074 0.04247 0.0
H162 H 0.51643 0.74821 0.03343 0.0
H163 H 0.54000 0.64422 0.02097 0.0
H164 H 0.69123 0.76280 0.98700 0.0
H165 H 0.72165 0.74488 0.99449 0.0
H166 H 0.70856 0.79172 0.96999 0.0
H167 H 0.72971 0.82441 0.94332 0.0
H168 H 0.76250 0.68831 0.91251 0.0
H169 H 0.74127 0.65572 0.93913 0.0
H170 H 0.75772 0.81306 0.91157 0.0
H171 H 0.77807 0.71124 0.89374 0.0
C172 C 0.26451 0.34968 0.87517 0.0
C173 C 0.27786 0.31002 0.88549 0.0
C174 C 0.29202 0.31534 0.90369 0.0
C175 C 0.30553 0.27597 0.91413 0.0
C176 C 0.31970 0.28162 0.93231 0.0
C177 C 0.32035 0.32660 0.93996 0.0
C178 C 0.30679 0.36593 0.92956 0.0
C179 C 0.29264 0.36029 0.91141 0.0
C180 C 0.34320 0.29192 0.96803 0.0
C181 C 0.35337 0.30704 0.98686 0.0
C182 C 0.37797 0.30975 0.98627 0.0
C183 C 0.38647 0.33263 0.00394 0.0
C184 C 0.37148 0.34797 0.02301 0.0
C185 C 0.34765 0.34145 0.02419 0.0
C186 C 0.33858 0.32102 0.00607 0.0
C187 C 0.31403 0.31773 0.00664 0.0
C188 C 0.39330 0.29291 0.96744 0.0
C189 C 0.38004 0.37115 0.04057 0.0
C190 C 0.40982 0.34078 0.00254 0.0
C191 C 0.42659 0.39984 0.00010 0.0
C192 C 0.44956 0.36503 0.00228 0.0
C193 C 0.47181 0.37755 0.00405 0.0
C194 C 0.47105 0.42486 0.00431 0.0
C195 C 0.44807 0.45965 0.00264 0.0
C196 C 0.42582 0.44712 0.00010 0.0
C197 C 0.49332 0.43726 0.00628 0.0
C198 C 0.51621 0.40230 0.00803 0.0
C199 C 0.33231 0.35750 0.04298 0.0
C200 C 0.32354 0.33342 0.07466 0.0
C201 C 0.30586 0.37782 0.07833 0.0
C202 C 0.28755 0.38610 0.09505 0.0
C203 C 0.28695 0.34991 0.10799 0.0
C204 C 0.30468 0.30556 0.10433 0.0
C205 C 0.32301 0.29731 0.08764 0.0
C206 C 0.26855 0.35786 0.12459 0.0
C207 C 0.26799 0.32134 0.13733 0.0
O208 O 0.33394 0.33250 0.95785 0.0
O209 O 0.34076 0.32464 0.05770 0.0
O210 O 0.40475 0.38771 0.99990 0.0
H211 H 0.26515 0.38278 0.88105 0.0
H212 H 0.27728 0.27686 0.87965 0.0
H213 H 0.30506 0.24269 0.90842 0.0
H214 H 0.32969 0.25256 0.94009 0.0
H215 H 0.30723 0.39921 0.93532 0.0
H216 H 0.28263 0.38937 0.90368 0.0
H217 H 0.35692 0.26730 0.95833 0.0
H218 H 0.32881 0.27837 0.97209 0.0
H219 H 0.30448 0.33705 0.02045 0.0
H220 H 0.31451 0.28284 0.00702 0.0
H221 H 0.30494 0.33106 0.99285 0.0
H222 H 0.38217 0.29071 0.95419 0.0
H223 H 0.40529 0.25974 0.96960 0.0
H224 H 0.40385 0.31531 0.96462 0.0
H225 H 0.36617 0.38201 0.05280 0.0
H226 H 0.38422 0.40017 0.03527 0.0
H227 H 0.39609 0.34857 0.04652 0.0
H228 H 0.41924 0.33316 0.01690 0.0
H229 H 0.42046 0.32061 0.98941 0.0
H230 H 0.45007 0.33003 0.00217 0.0
H231 H 0.48885 0.35183 0.00521 0.0
H232 H 0.44752 0.49465 0.00276 0.0
H233 H 0.40876 0.47283 0.99990 0.0
H234 H 0.49287 0.47223 0.00646 0.0
H235 H 0.51661 0.36736 0.00783 0.0
H236 H 0.33338 0.39003 0.04931 0.0
H237 H 0.31389 0.35975 0.03926 0.0
H238 H 0.30624 0.40441 0.06861 0.0
H239 H 0.27439 0.41892 0.09779 0.0
H240 H 0.30419 0.27883 0.11393 0.0
H241 H 0.33606 0.26443 0.08482 0.0
H242 H 0.25537 0.39064 0.12743 0.0
H243 H 0.28120 0.28862 0.13443 0.0
C244 C 0.82034 0.69862 0.83590 0.0
C245 C 0.84468 0.69665 0.84232 0.0
C246 C 0.84840 0.71641 0.86294 0.0
C247 C 0.82780 0.73813 0.87715 0.0
C248 C 0.92735 0.60991 0.78577 0.0
C249 C 0.79974 0.72034 0.85011 0.0
C250 C 0.86530 0.67494 0.82814 0.0
C251 C 0.88595 0.65325 0.81399 0.0
C252 C 0.90664 0.63157 0.79987 0.0
C253 C 0.80347 0.74010 0.87073 0.0
H254 H 0.81758 0.68399 0.82063 0.0
H255 H 0.86641 0.71497 0.86770 0.0
H256 H 0.83057 0.75274 0.89241 0.0
H257 H 0.78173 0.72180 0.84535 0.0
C258 C 0.82364 0.66474 0.20598 0.0
C259 C 0.84508 0.67999 0.20526 0.0
C260 C 0.84560 0.71639 0.19242 0.0
C261 C 0.82470 0.73754 0.18031 0.0
C262 C 0.92892 0.59591 0.25360 0.0
C263 C 0.80274 0.68590 0.19387 0.0
C264 C 0.86601 0.65889 0.21736 0.0
C265 C 0.88696 0.63784 0.22945 0.0
C266 C 0.90793 0.61686 0.24153 0.0
C267 C 0.80326 0.72230 0.18103 0.0
H268 H 0.82325 0.63780 0.21549 0.0
H269 H 0.86147 0.72768 0.19187 0.0
H270 H 0.82509 0.76449 0.17080 0.0
H271 H 0.78687 0.67460 0.19440 0.0
C272 C 0.21353 0.43316 0.83304 0.0
C273 C 0.19476 0.41168 0.82831 0.0
C274 C 0.19682 0.36735 0.83542 0.0
C275 C 0.21762 0.34448 0.84725 0.0
C276 C 0.11136 0.50254 0.78099 0.0
C277 C 0.23434 0.41029 0.84488 0.0
C278 C 0.17394 0.43450 0.81647 0.0
C279 C 0.15310 0.45724 0.80464 0.0
C280 C 0.13224 0.47991 0.79282 0.0
C281 C 0.23638 0.36595 0.85198 0.0
H282 H 0.21202 0.46599 0.82778 0.0
H283 H 0.18293 0.35144 0.83191 0.0
H284 H 0.21912 0.31167 0.85252 0.0
H285 H 0.24823 0.42619 0.84837 0.0
C286 C 0.21951 0.36718 0.19789 0.0
C287 C 0.19551 0.38423 0.18949 0.0
C288 C 0.19236 0.38113 0.16692 0.0
C289 C 0.21319 0.36100 0.15276 0.0
C290 C 0.11193 0.46486 0.24584 0.0
C291 C 0.24034 0.34705 0.18373 0.0
C292 C 0.17466 0.40437 0.20362 0.0
C293 C 0.15378 0.42452 0.21772 0.0
C294 C 0.13287 0.44468 0.23179 0.0
C295 C 0.23718 0.34396 0.16116 0.0
H296 H 0.22185 0.36947 0.21460 0.0
H297 H 0.17460 0.39376 0.16069 0.0
H298 H 0.21084 0.35871 0.13605 0.0
H299 H 0.25810 0.33444 0.18995 0.0
C300 C 0.53469 0.49426 0.01877 0.0
H301 H 0.51406 0.57495 0.03619 0.0
H302 H 0.50232 0.56714 0.01639 0.0
H303 H 0.54978 0.54323 0.02179 0.0
H304 H 0.53935 0.53973 0.00010 0.0
H305 H 0.54876 0.47260 0.01432 0.0
H306 H 0.53277 0.49295 0.03294 0.0
C307 C 0.51547 0.57421 0.02188 0.0
C308 C 0.53673 0.53876 0.01493 0.0
C309 C 0.98948 0.34714 0.68295 0.0
C310 C 0.01027 0.31813 0.67062 0.0
C311 C 0.03155 0.33305 0.66770 0.0
C312 C 0.03206 0.37697 0.67710 0.0
C313 C 0.00865 0.14227 0.63288 0.0
C314 C 0.98999 0.39107 0.69235 0.0
C315 C 0.00979 0.27419 0.66121 0.0
C316 C 0.00937 0.23023 0.65178 0.0
C317 C 0.00899 0.18626 0.64234 0.0
C318 C 0.01128 0.40599 0.68943 0.0
H319 H 0.97372 0.33610 0.68511 0.0
H320 H 0.04694 0.31159 0.65857 0.0
H321 H 0.04783 0.38800 0.67494 0.0
H322 H 0.97460 0.41254 0.70147 0.0
C323 C 0.04001 0.78593 0.67085 0.0
C324 C 0.01643 0.81819 0.66815 0.0
C325 C 0.99456 0.80811 0.67454 0.0
C326 C 0.99625 0.76578 0.68362 0.0
C327 C 0.00922 0.98774 0.63189 0.0
C328 C 0.04170 0.74360 0.67993 0.0
C329 C 0.01470 0.86054 0.65908 0.0
C330 C 0.01292 0.90291 0.65001 0.0
C331 C 0.01109 0.94532 0.64095 0.0
C332 C 0.01982 0.73352 0.68631 0.0
H333 H 0.05621 0.79339 0.66612 0.0
H334 H 0.97710 0.83198 0.67254 0.0
H335 H 0.98004 0.75834 0.68835 0.0
H336 H 0.05915 0.71972 0.68192 0.0
C337 C 0.03446 0.74660 0.35384 0.0
C338 C 0.01197 0.77799 0.36266 0.0
C339 C 0.98979 0.76498 0.36204 0.0
C340 C 0.99010 0.72061 0.35261 0.0
C341 C 0.01031 0.95567 0.40048 0.0
C342 C 0.03476 0.70221 0.34441 0.0
C343 C 0.01162 0.82238 0.37210 0.0
C344 C 0.01123 0.86679 0.38155 0.0
C345 C 0.01079 0.91122 0.39101 0.0
C346 C 0.01258 0.68922 0.34380 0.0
H347 H 0.05088 0.75621 0.35430 0.0
H348 H 0.97314 0.78822 0.36856 0.0
H349 H 0.97368 0.71100 0.35216 0.0
H350 H 0.05141 0.67898 0.33788 0.0
C351 C 0.03301 0.26717 0.34599 0.0
C352 C 0.01775 0.27117 0.36464 0.0
C353 C 0.00417 0.31566 0.37416 0.0
C354 C 0.00584 0.35617 0.36504 0.0
C355 C 0.01078 0.10958 0.40140 0.0
C356 C 0.03467 0.30769 0.33687 0.0
C357 C 0.01606 0.23069 0.37379 0.0
C358 C 0.01433 0.19028 0.38297 0.0
C359 C 0.01256 0.14992 0.39217 0.0
C360 C 0.02109 0.35219 0.34639 0.0
H361 H 0.04306 0.23423 0.33894 0.0
H362 H 0.99288 0.31863 0.38797 0.0
H363 H 0.99578 0.38911 0.37209 0.0
H364 H 0.04597 0.30474 0.32307 0.0
S365 S 0.01526 0.07301 0.48929 0.0
C366 C 0.00908 0.04294 0.46981 0.0
C367 C 0.00010 0.01337 0.47613 0.0
C368 C 0.99843 0.01457 0.49696 0.0
C369 C 0.00544 0.04616 0.50634 0.0
S370 S 0.99990 0.02727 0.54449 0.0
C371 C 0.00469 0.05875 0.56397 0.0
C372 C 0.01155 0.09066 0.55763 0.0
C373 C 0.01287 0.09010 0.53680 0.0
H374 H 0.99581 0.99394 0.46762 0.0
H375 H 0.99297 0.99558 0.50353 0.0
C376 C 0.00639 0.05786 0.52743 0.0
H377 H 0.01507 0.11126 0.56614 0.0
H378 H 0.01771 0.10985 0.53023 0.0
