data_{}
_symmetry_space_group_name_H-M    P1
_symmetry_Int_Tables_number       1
_symmetry_cell_setting            triclinic
loop_
_symmetry_equiv_pos_as_xyz
'x, y, z'
_cell_length_a     88.678
_cell_length_b     88.680
_cell_length_c     43.643
_cell_angle_alpha  90.121
_cell_angle_beta   90.121
_cell_angle_gamma  116.591
loop_
_atom_site_label
_atom_site_type_symbol
_atom_site_fract_x
_atom_site_fract_y
_atom_site_fract_z
_atom_type_partial_charge
C0 C 0.99459 0.53429 0.97222 0.0
C1 C 0.99468 0.53440 0.02996 0.0
C2 C 0.00628 0.52770 0.97182 0.0
C3 C 0.00623 0.52765 0.03038 0.0
C4 C 0.01222 0.52563 0.94153 0.0
C5 C 0.01230 0.52572 0.06061 0.0
C6 C 0.98968 0.53925 0.00108 0.0
C7 C 0.01242 0.52499 0.00112 0.0
H8 H 0.05249 0.49563 0.00108 0.0
H9 H 0.02738 0.51294 0.92101 0.0
H10 H 0.02712 0.51257 0.08107 0.0
H11 H 0.07944 0.52381 0.89069 0.0
H12 H 0.07149 0.52570 0.94467 0.0
H13 H 0.02407 0.48530 0.92565 0.0
H14 H 0.03591 0.47917 0.87849 0.0
H15 H 0.08025 0.52397 0.11109 0.0
H16 H 0.07139 0.52630 0.05793 0.0
H17 H 0.02491 0.48442 0.07588 0.0
H18 H 0.03776 0.47799 0.12147 0.0
H19 H 0.98242 0.54645 0.00109 0.0
H20 H 0.00751 0.52915 0.92102 0.0
H21 H 0.00782 0.52949 0.08109 0.0
H22 H 0.95544 0.51829 0.89023 0.0
H23 H 0.96341 0.51639 0.94424 0.0
H24 H 0.01082 0.55679 0.92595 0.0
H25 H 0.99897 0.56293 0.87877 0.0
H26 H 0.95470 0.51808 0.11063 0.0
H27 H 0.96354 0.51576 0.05750 0.0
H28 H 0.01003 0.55764 0.07619 0.0
H29 H 0.99719 0.56407 0.12176 0.0
C30 C 0.05942 0.49987 0.88394 0.0
C31 C 0.06041 0.49996 0.11781 0.0
C32 C 0.06808 0.51370 0.90028 0.0
C33 C 0.06879 0.51388 0.10166 0.0
C34 C 0.06283 0.51553 0.93001 0.0
C35 C 0.06307 0.51584 0.07231 0.0
C36 C 0.04718 0.50488 0.94099 0.0
C37 C 0.04740 0.50500 0.06134 0.0
C38 C 0.03738 0.49288 0.92050 0.0
C39 C 0.03815 0.49242 0.08109 0.0
C40 C 0.04387 0.48991 0.89281 0.0
C41 C 0.04512 0.48934 0.10824 0.0
C42 C 0.04031 0.50780 0.97225 0.0
C43 C 0.04024 0.50767 0.02999 0.0
C44 C 0.02863 0.51438 0.97183 0.0
C45 C 0.02869 0.51442 0.03039 0.0
C46 C 0.02268 0.51646 0.94152 0.0
C47 C 0.02263 0.51635 0.06060 0.0
C48 C 0.04524 0.50282 0.00109 0.0
C49 C 0.02250 0.51709 0.00112 0.0
C50 C 0.97546 0.54223 0.88385 0.0
C51 C 0.97454 0.54210 0.11771 0.0
C52 C 0.96680 0.52840 0.90000 0.0
C53 C 0.96615 0.52818 0.10137 0.0
C54 C 0.97206 0.52656 0.92975 0.0
C55 C 0.97187 0.52622 0.07205 0.0
C56 C 0.98772 0.53721 0.94095 0.0
C57 C 0.98754 0.53706 0.06129 0.0
C58 C 0.99751 0.54921 0.92064 0.0
C59 C 0.99679 0.54965 0.08122 0.0
C60 C 0.99101 0.55219 0.89293 0.0
C61 C 0.98982 0.55272 0.10836 0.0
C62 C 0.53343 0.99391 0.97221 0.0
C63 C 0.53332 0.99381 0.02996 0.0
C64 C 0.52702 0.00573 0.97181 0.0
C65 C 0.52708 0.00577 0.03037 0.0
C66 C 0.52327 0.01033 0.94151 0.0
C67 C 0.52317 0.01025 0.06060 0.0
C68 C 0.53528 0.98649 0.00105 0.0
C69 C 0.52336 0.01111 0.00111 0.0
H70 H 0.50399 0.05920 0.00115 0.0
H71 H 0.51655 0.03028 0.92104 0.0
H72 H 0.51689 0.03059 0.08111 0.0
H73 H 0.47248 0.03828 0.89029 0.0
H74 H 0.47785 0.03312 0.94430 0.0
H75 H 0.52975 0.05972 0.92599 0.0
H76 H 0.52305 0.07109 0.87883 0.0
H77 H 0.47180 0.03841 0.11069 0.0
H78 H 0.47768 0.03240 0.05756 0.0
H79 H 0.52944 0.06102 0.07623 0.0
H80 H 0.52208 0.07312 0.12182 0.0
H81 H 0.53806 0.97570 0.00102 0.0
H82 H 0.52551 0.00459 0.92100 0.0
H83 H 0.52515 0.00434 0.08105 0.0
H84 H 0.56959 0.99658 0.89062 0.0
H85 H 0.56422 0.00176 0.94461 0.0
H86 H 0.51232 0.97516 0.92561 0.0
H87 H 0.51903 0.96377 0.87843 0.0
H88 H 0.57024 0.99652 0.11103 0.0
H89 H 0.56436 0.00251 0.05788 0.0
H90 H 0.51260 0.97390 0.07584 0.0
H91 H 0.51995 0.96181 0.12142 0.0
C92 C 0.49706 0.05716 0.88392 0.0
C93 C 0.49626 0.05744 0.11778 0.0
C94 C 0.48509 0.04514 0.90006 0.0
C95 C 0.48447 0.04521 0.10143 0.0
C96 C 0.48840 0.04108 0.92980 0.0
C97 C 0.48810 0.04082 0.07210 0.0
C98 C 0.50450 0.04687 0.94099 0.0
C99 C 0.50428 0.04682 0.06133 0.0
C100 C 0.51663 0.05643 0.92069 0.0
C101 C 0.51622 0.05724 0.08127 0.0
C102 C 0.51280 0.06223 0.89299 0.0
C103 C 0.51206 0.06335 0.10842 0.0
C104 C 0.50863 0.04098 0.97226 0.0
C105 C 0.50873 0.04109 0.03000 0.0
C106 C 0.51504 0.02916 0.97184 0.0
C107 C 0.51497 0.02914 0.03040 0.0
C108 C 0.51879 0.02455 0.94154 0.0
C109 C 0.51887 0.02466 0.06062 0.0
C110 C 0.50678 0.04841 0.00112 0.0
C111 C 0.51869 0.02379 0.00113 0.0
C112 C 0.54502 0.97770 0.88387 0.0
C113 C 0.54577 0.97749 0.11774 0.0
C114 C 0.55698 0.98973 0.90022 0.0
C115 C 0.55757 0.98972 0.10160 0.0
C116 C 0.55367 0.99380 0.92996 0.0
C117 C 0.55394 0.99410 0.07226 0.0
C118 C 0.53756 0.98800 0.94095 0.0
C119 C 0.53776 0.98810 0.06129 0.0
C120 C 0.52543 0.97844 0.92046 0.0
C121 C 0.52582 0.97768 0.08104 0.0
C122 C 0.52927 0.97263 0.89275 0.0
C123 C 0.52997 0.97158 0.10818 0.0
H124 H 0.54613 0.52344 0.54550 0.0
H125 H 0.57451 0.53149 0.54754 0.0
H126 H 0.57457 0.53174 0.45676 0.0
H127 H 0.54607 0.52325 0.45776 0.0
H128 H 0.52329 0.54597 0.45753 0.0
H129 H 0.53133 0.57434 0.45550 0.0
H130 H 0.53190 0.57472 0.54628 0.0
H131 H 0.52340 0.54622 0.54526 0.0
H132 H 0.48713 0.51951 0.54058 0.0
H133 H 0.45955 0.51432 0.54031 0.0
H134 H 0.45345 0.48824 0.46252 0.0
H135 H 0.48157 0.49506 0.46434 0.0
H136 H 0.52183 0.50655 0.56656 0.0
H137 H 0.51938 0.48699 0.46240 0.0
H138 H 0.51419 0.45941 0.46265 0.0
H139 H 0.48838 0.45358 0.54042 0.0
H140 H 0.49520 0.48170 0.53862 0.0
H141 H 0.50633 0.52160 0.43644 0.0
C142 C 0.55190 0.52491 0.52711 0.0
C143 C 0.56908 0.52974 0.52868 0.0
C144 C 0.57789 0.53187 0.50208 0.0
C145 C 0.56904 0.52981 0.47548 0.0
C146 C 0.55181 0.52484 0.47629 0.0
C147 C 0.52483 0.55180 0.47592 0.0
C148 C 0.52965 0.56898 0.47436 0.0
C149 C 0.53187 0.57788 0.50097 0.0
C150 C 0.52990 0.56913 0.52756 0.0
C151 C 0.52493 0.55189 0.52673 0.0
C152 C 0.48034 0.51340 0.52428 0.0
C153 C 0.46379 0.51032 0.52445 0.0
C154 C 0.45340 0.50106 0.50046 0.0
C155 C 0.46015 0.49499 0.47835 0.0
C156 C 0.47709 0.49901 0.47985 0.0
C157 C 0.51333 0.48025 0.47870 0.0
C158 C 0.51024 0.46371 0.47851 0.0
C159 C 0.50107 0.45340 0.50249 0.0
C160 C 0.49507 0.46023 0.52460 0.0
C161 C 0.49909 0.47716 0.52312 0.0
S162 S 0.51490 0.51465 0.55763 0.0
S163 S 0.51446 0.51470 0.44537 0.0
N164 N 0.54318 0.52227 0.50177 0.0
N165 N 0.52228 0.54317 0.50125 0.0
N166 N 0.48743 0.50824 0.50223 0.0
N167 N 0.50824 0.48742 0.50074 0.0
Fe168 Fe 0.51515 0.51515 0.50150 0.0
C169 C 0.11011 0.43675 0.29781 0.0
C170 C 0.10597 0.42081 0.31696 0.0
C171 C 0.11707 0.42174 0.34475 0.0
C172 C 0.11313 0.40589 0.36409 0.0
C173 C 0.12434 0.40694 0.39181 0.0
C174 C 0.13948 0.42381 0.40008 0.0
C175 C 0.14338 0.43964 0.38082 0.0
C176 C 0.13218 0.43860 0.35314 0.0
C177 C 0.14336 0.40916 0.44636 0.0
C178 C 0.15511 0.41417 0.47434 0.0
C179 C 0.17163 0.41253 0.47320 0.0
C180 C 0.18481 0.42058 0.49877 0.0
C181 C 0.18063 0.42838 0.52711 0.0
C182 C 0.16338 0.42854 0.52946 0.0
C183 C 0.15062 0.42145 0.50301 0.0
C184 C 0.13395 0.42287 0.50416 0.0
C185 C 0.17554 0.40414 0.44536 0.0
C186 C 0.19395 0.43654 0.55248 0.0
C187 C 0.20228 0.42108 0.49595 0.0
C188 C 0.23204 0.44123 0.48849 0.0
C189 C 0.23541 0.42584 0.49360 0.0
C190 C 0.25366 0.42816 0.49534 0.0
C191 C 0.26851 0.44586 0.49197 0.0
C192 C 0.26512 0.46124 0.48661 0.0
C193 C 0.24687 0.45891 0.48487 0.0
C194 C 0.28673 0.44814 0.49403 0.0
C195 C 0.29001 0.43271 0.49954 0.0
C196 C 0.15921 0.43664 0.55731 0.0
C197 C 0.14648 0.42942 0.60833 0.0
C198 C 0.14968 0.44794 0.61049 0.0
C199 C 0.14106 0.45341 0.63574 0.0
C200 C 0.12921 0.44032 0.65869 0.0
C201 C 0.12606 0.42181 0.65655 0.0
C202 C 0.13470 0.41635 0.63135 0.0
C203 C 0.12043 0.44568 0.68379 0.0
C204 C 0.10850 0.43246 0.70644 0.0
O205 O 0.15040 0.42500 0.42734 0.0
O206 O 0.15424 0.42387 0.58275 0.0
O207 O 0.21419 0.43903 0.48780 0.0
H208 H 0.12135 0.44916 0.30428 0.0
H209 H 0.09474 0.40838 0.31056 0.0
H210 H 0.10193 0.39341 0.35789 0.0
H211 H 0.12144 0.39524 0.40619 0.0
H212 H 0.15456 0.45213 0.38708 0.0
H213 H 0.13508 0.45031 0.33883 0.0
H214 H 0.14392 0.39827 0.43329 0.0
H215 H 0.12990 0.40576 0.45374 0.0
H216 H 0.13442 0.43144 0.52402 0.0
H217 H 0.12296 0.40984 0.50752 0.0
H218 H 0.13220 0.42846 0.48171 0.0
H219 H 0.16748 0.40418 0.42500 0.0
H220 H 0.17247 0.39056 0.45136 0.0
H221 H 0.18946 0.41128 0.43920 0.0
H222 H 0.18889 0.44238 0.57057 0.0
H223 H 0.20589 0.44676 0.54195 0.0
H224 H 0.19697 0.42656 0.56351 0.0
H225 H 0.20610 0.41759 0.51882 0.0
H226 H 0.20224 0.41210 0.47720 0.0
H227 H 0.22440 0.41275 0.49623 0.0
H228 H 0.25619 0.41679 0.49920 0.0
H229 H 0.27611 0.47433 0.48400 0.0
H230 H 0.24432 0.47029 0.48103 0.0
H231 H 0.29778 0.46122 0.49153 0.0
H232 H 0.27894 0.41966 0.50203 0.0
H233 H 0.17055 0.44880 0.56451 0.0
H234 H 0.14814 0.43936 0.55135 0.0
H235 H 0.15834 0.45755 0.59329 0.0
H236 H 0.14337 0.46711 0.63737 0.0
H237 H 0.11728 0.41216 0.67357 0.0
H238 H 0.13230 0.40264 0.62959 0.0
H239 H 0.12271 0.45936 0.68557 0.0
H240 H 0.10624 0.41878 0.70457 0.0
C241 C 0.43545 0.10952 0.29780 0.0
C242 C 0.45133 0.11986 0.31716 0.0
C243 C 0.45021 0.13003 0.34494 0.0
C244 C 0.46599 0.14048 0.36447 0.0
C245 C 0.46474 0.15065 0.39217 0.0
C246 C 0.44773 0.15037 0.40023 0.0
C247 C 0.43196 0.13988 0.38078 0.0
C248 C 0.43320 0.12972 0.35311 0.0
C249 C 0.46218 0.16750 0.44669 0.0
C250 C 0.45699 0.17460 0.47461 0.0
C251 C 0.45831 0.19247 0.47349 0.0
C252 C 0.45008 0.19823 0.49896 0.0
C253 C 0.44242 0.18701 0.52720 0.0
C254 C 0.44259 0.16977 0.52955 0.0
C255 C 0.44986 0.16355 0.50319 0.0
C256 C 0.44876 0.14573 0.50432 0.0
C257 C 0.46656 0.20395 0.44576 0.0
C258 C 0.43408 0.19282 0.55247 0.0
C259 C 0.44926 0.21510 0.49613 0.0
C260 C 0.42872 0.22635 0.48842 0.0
C261 C 0.44391 0.24363 0.49372 0.0
C262 C 0.44127 0.25963 0.49543 0.0
C263 C 0.42344 0.25830 0.49184 0.0
C264 C 0.40826 0.24100 0.48628 0.0
C265 C 0.41091 0.22501 0.48458 0.0
C266 C 0.42084 0.27430 0.49387 0.0
C267 C 0.43607 0.29153 0.49957 0.0
C268 C 0.43464 0.15830 0.55730 0.0
C269 C 0.44204 0.15222 0.60842 0.0
C270 C 0.42362 0.13861 0.61034 0.0
C271 C 0.41836 0.12510 0.63552 0.0
C272 C 0.43155 0.12522 0.65864 0.0
C273 C 0.44996 0.13887 0.65673 0.0
C274 C 0.45521 0.15238 0.63159 0.0
C275 C 0.42641 0.11165 0.68367 0.0
C276 C 0.43974 0.11181 0.70649 0.0
O277 O 0.44634 0.16012 0.42747 0.0
O278 O 0.44739 0.16494 0.58290 0.0
O279 O 0.43124 0.21065 0.48776 0.0
H280 H 0.42294 0.10942 0.30412 0.0
H281 H 0.46387 0.11999 0.31091 0.0
H282 H 0.47858 0.14069 0.35842 0.0
H283 H 0.47639 0.15838 0.40670 0.0
H284 H 0.41936 0.13964 0.38688 0.0
H285 H 0.42154 0.12198 0.33866 0.0
H286 H 0.47297 0.17791 0.43376 0.0
H287 H 0.46581 0.15723 0.45412 0.0
H288 H 0.44026 0.13843 0.52408 0.0
H289 H 0.46189 0.14666 0.50785 0.0
H290 H 0.44326 0.13893 0.48181 0.0
H291 H 0.46667 0.19592 0.42539 0.0
H292 H 0.48008 0.21321 0.45192 0.0
H293 H 0.45922 0.21127 0.43950 0.0
H294 H 0.42839 0.18252 0.57049 0.0
H295 H 0.42372 0.19540 0.54181 0.0
H296 H 0.44392 0.20486 0.56362 0.0
H297 H 0.45264 0.22204 0.51904 0.0
H298 H 0.45816 0.22321 0.47749 0.0
H299 H 0.45710 0.24458 0.49651 0.0
H300 H 0.45250 0.27244 0.49942 0.0
H301 H 0.39507 0.24003 0.48351 0.0
H302 H 0.39968 0.21218 0.48059 0.0
H303 H 0.40767 0.27340 0.49120 0.0
H304 H 0.44923 0.29239 0.50221 0.0
H305 H 0.42237 0.15852 0.56435 0.0
H306 H 0.43215 0.14486 0.55131 0.0
H307 H 0.41392 0.13848 0.59302 0.0
H308 H 0.40473 0.11498 0.63698 0.0
H309 H 0.45970 0.13892 0.67387 0.0
H310 H 0.46885 0.16243 0.63000 0.0
H311 H 0.41279 0.10151 0.68528 0.0
H312 H 0.45334 0.12197 0.70479 0.0
C313 C 0.92395 0.60552 0.70470 0.0
C314 C 0.91382 0.58958 0.68536 0.0
C315 C 0.90354 0.59050 0.65758 0.0
C316 C 0.89330 0.57466 0.63805 0.0
C317 C 0.88301 0.57571 0.61035 0.0
C318 C 0.88298 0.59257 0.60229 0.0
C319 C 0.89326 0.60841 0.62175 0.0
C320 C 0.90353 0.60737 0.64941 0.0
C321 C 0.86597 0.57792 0.55584 0.0
C322 C 0.85871 0.58294 0.52792 0.0
C323 C 0.84072 0.58129 0.52905 0.0
C324 C 0.83475 0.58935 0.50359 0.0
C325 C 0.84591 0.59715 0.47535 0.0
C326 C 0.86330 0.59731 0.47298 0.0
C327 C 0.86971 0.59022 0.49934 0.0
C328 C 0.88765 0.59164 0.49820 0.0
C329 C 0.82930 0.57290 0.55679 0.0
C330 C 0.83989 0.60531 0.45008 0.0
C331 C 0.81772 0.58984 0.50642 0.0
C332 C 0.80600 0.60999 0.51414 0.0
C333 C 0.78885 0.59460 0.50885 0.0
C334 C 0.77268 0.59692 0.50715 0.0
C335 C 0.77368 0.61463 0.51074 0.0
C336 C 0.79083 0.63000 0.51630 0.0
C337 C 0.80701 0.62768 0.51799 0.0
C338 C 0.75749 0.61690 0.50872 0.0
C339 C 0.74041 0.60148 0.50303 0.0
C340 C 0.87471 0.60540 0.44523 0.0
C341 C 0.88097 0.59818 0.39411 0.0
C342 C 0.89435 0.61670 0.39218 0.0
C343 C 0.90787 0.62217 0.36700 0.0
C344 C 0.90799 0.60909 0.34387 0.0
C345 C 0.89458 0.59058 0.34579 0.0
C346 C 0.88105 0.58512 0.37093 0.0
C347 C 0.92157 0.61444 0.31884 0.0
C348 C 0.92166 0.60123 0.29602 0.0
O349 O 0.87312 0.59377 0.57506 0.0
O350 O 0.86825 0.59264 0.41963 0.0
O351 O 0.82187 0.60779 0.51480 0.0
H352 H 0.92381 0.61792 0.69839 0.0
H353 H 0.91393 0.57715 0.69159 0.0
H354 H 0.89332 0.56217 0.64409 0.0
H355 H 0.87544 0.56401 0.59583 0.0
H356 H 0.89326 0.62090 0.61564 0.0
H357 H 0.91111 0.61907 0.66386 0.0
H358 H 0.85568 0.56704 0.56877 0.0
H359 H 0.87639 0.57452 0.54841 0.0
H360 H 0.89485 0.60020 0.47844 0.0
H361 H 0.88697 0.57860 0.49467 0.0
H362 H 0.89441 0.59723 0.52072 0.0
H363 H 0.83740 0.57294 0.57715 0.0
H364 H 0.82021 0.55932 0.55063 0.0
H365 H 0.82178 0.58004 0.56305 0.0
H366 H 0.85017 0.61115 0.43206 0.0
H367 H 0.83709 0.61553 0.46074 0.0
H368 H 0.82793 0.59533 0.43893 0.0
H369 H 0.81078 0.58636 0.48352 0.0
H370 H 0.80972 0.58086 0.52507 0.0
H371 H 0.78814 0.58151 0.50606 0.0
H372 H 0.75996 0.58555 0.50316 0.0
H373 H 0.79156 0.64310 0.51907 0.0
H374 H 0.81974 0.63905 0.52197 0.0
H375 H 0.75816 0.62998 0.51139 0.0
H376 H 0.73978 0.58842 0.50038 0.0
H377 H 0.87425 0.61756 0.43818 0.0
H378 H 0.88822 0.60812 0.45121 0.0
H379 H 0.89430 0.62632 0.40951 0.0
H380 H 0.91781 0.63587 0.36553 0.0
H381 H 0.89471 0.58092 0.32864 0.0
H382 H 0.87118 0.57141 0.37252 0.0
H383 H 0.93154 0.62813 0.31722 0.0
H384 H 0.91167 0.58755 0.29772 0.0
C385 C 0.60421 0.92337 0.70470 0.0
C386 C 0.62008 0.92724 0.68554 0.0
C387 C 0.61896 0.91606 0.65775 0.0
C388 C 0.63474 0.91974 0.63842 0.0
C389 C 0.63349 0.90844 0.61070 0.0
C390 C 0.61648 0.89350 0.60244 0.0
C391 C 0.60071 0.88986 0.62170 0.0
C392 C 0.60196 0.90114 0.64937 0.0
C393 C 0.63094 0.88930 0.55616 0.0
C394 C 0.62574 0.87754 0.52818 0.0
C395 C 0.62706 0.86085 0.52933 0.0
C396 C 0.61883 0.84772 0.50377 0.0
C397 C 0.61117 0.85208 0.47543 0.0
C398 C 0.61134 0.86947 0.47307 0.0
C399 C 0.61861 0.88220 0.49952 0.0
C400 C 0.61752 0.89904 0.49836 0.0
C401 C 0.63531 0.85676 0.55718 0.0
C402 C 0.60283 0.83880 0.45006 0.0
C403 C 0.61801 0.83011 0.50659 0.0
C404 C 0.59747 0.80048 0.51407 0.0
C405 C 0.61266 0.79680 0.50896 0.0
C406 C 0.61002 0.77844 0.50723 0.0
C407 C 0.59219 0.76381 0.51060 0.0
C408 C 0.57701 0.76751 0.51597 0.0
C409 C 0.57966 0.78587 0.51769 0.0
C410 C 0.58959 0.74547 0.50855 0.0
C411 C 0.60482 0.74188 0.50305 0.0
C412 C 0.60339 0.87382 0.44522 0.0
C413 C 0.61079 0.88652 0.39419 0.0
C414 C 0.59237 0.88363 0.39203 0.0
C415 C 0.58711 0.89243 0.36678 0.0
C416 C 0.60030 0.90412 0.34382 0.0
C417 C 0.61871 0.90695 0.34596 0.0
C418 C 0.62396 0.89814 0.37117 0.0
C419 C 0.59516 0.91308 0.31872 0.0
C420 C 0.60849 0.92485 0.29606 0.0
O421 O 0.61509 0.88250 0.57519 0.0
O422 O 0.61614 0.87859 0.41977 0.0
O423 O 0.59999 0.81844 0.51475 0.0
H424 H 0.59169 0.91226 0.69823 0.0
H425 H 0.63262 0.93833 0.69194 0.0
H426 H 0.64733 0.93079 0.64462 0.0
H427 H 0.64514 0.91114 0.59633 0.0
H428 H 0.58812 0.87883 0.61544 0.0
H429 H 0.59029 0.89844 0.66368 0.0
H430 H 0.64172 0.88854 0.56923 0.0
H431 H 0.63456 0.90281 0.54878 0.0
H432 H 0.60902 0.89873 0.47850 0.0
H433 H 0.63065 0.90987 0.49499 0.0
H434 H 0.61201 0.90091 0.52081 0.0
H435 H 0.63542 0.86489 0.57754 0.0
H436 H 0.64883 0.85960 0.55118 0.0
H437 H 0.62797 0.84287 0.56334 0.0
H438 H 0.59714 0.84400 0.43197 0.0
H439 H 0.59247 0.82694 0.46060 0.0
H440 H 0.61267 0.83556 0.43904 0.0
H441 H 0.62139 0.82620 0.48373 0.0
H442 H 0.62691 0.82998 0.52535 0.0
H443 H 0.62585 0.80765 0.50633 0.0
H444 H 0.62125 0.77567 0.50338 0.0
H445 H 0.56382 0.75667 0.51858 0.0
H446 H 0.56843 0.78865 0.52153 0.0
H447 H 0.57641 0.73458 0.51106 0.0
H448 H 0.61797 0.75279 0.50056 0.0
H449 H 0.59112 0.86261 0.43802 0.0
H450 H 0.60090 0.88504 0.45117 0.0
H451 H 0.58268 0.87509 0.40924 0.0
H452 H 0.57348 0.89035 0.36515 0.0
H453 H 0.62845 0.91562 0.32894 0.0
H454 H 0.63760 0.90030 0.37293 0.0
H455 H 0.58155 0.91103 0.31694 0.0
H456 H 0.62209 0.92687 0.29793 0.0
C457 C 0.43786 0.48870 0.49492 0.0
C458 C 0.41924 0.48110 0.49683 0.0
C459 C 0.41172 0.48192 0.52458 0.0
C460 C 0.39415 0.47552 0.52587 0.0
C461 C 0.38358 0.46751 0.50095 0.0
C462 C 0.39192 0.46684 0.47434 0.0
C463 C 0.40946 0.47347 0.47151 0.0
C464 C 0.31132 0.44457 0.51074 0.0
C465 C 0.33062 0.45004 0.50793 0.0
C466 C 0.33944 0.44893 0.53257 0.0
C467 C 0.35657 0.45377 0.52906 0.0
C468 C 0.36491 0.46071 0.50251 0.0
C469 C 0.35576 0.46185 0.47838 0.0
C470 C 0.33866 0.45655 0.48037 0.0
H471 H 0.44103 0.48315 0.47878 0.0
H472 H 0.44236 0.48689 0.51410 0.0
H473 H 0.41830 0.48665 0.54189 0.0
H474 H 0.38928 0.47662 0.54406 0.0
H475 H 0.38537 0.46162 0.45722 0.0
H476 H 0.41435 0.47274 0.45308 0.0
H477 H 0.30795 0.44984 0.49437 0.0
H478 H 0.30927 0.44881 0.53003 0.0
H479 H 0.33415 0.44503 0.55130 0.0
H480 H 0.36254 0.45223 0.54531 0.0
H481 H 0.36120 0.46636 0.46003 0.0
H482 H 0.33257 0.45730 0.46354 0.0
C483 C 0.50115 0.43767 0.48836 0.0
C484 C 0.49229 0.41907 0.49089 0.0
C485 C 0.49279 0.41148 0.51875 0.0
C486 C 0.48366 0.39395 0.52158 0.0
C487 C 0.47464 0.38346 0.49721 0.0
C488 C 0.47501 0.39185 0.47006 0.0
C489 C 0.48352 0.40937 0.46621 0.0
C490 C 0.43551 0.31144 0.51639 0.0
C491 C 0.44645 0.33066 0.51036 0.0
C492 C 0.46140 0.33916 0.52518 0.0
C493 C 0.47085 0.35623 0.51898 0.0
C494 C 0.46499 0.36484 0.50038 0.0
C495 C 0.44987 0.35601 0.48620 0.0
C496 C 0.44042 0.33897 0.49059 0.0
H497 H 0.50401 0.44075 0.46708 0.0
H498 H 0.51158 0.44193 0.50003 0.0
H499 H 0.49909 0.41799 0.53514 0.0
H500 H 0.48358 0.38906 0.54045 0.0
H501 H 0.46917 0.38535 0.45327 0.0
H502 H 0.48324 0.41430 0.44755 0.0
H503 H 0.42396 0.30839 0.51034 0.0
H504 H 0.43552 0.30942 0.53824 0.0
H505 H 0.46521 0.33370 0.53911 0.0
H506 H 0.48149 0.36196 0.52777 0.0
H507 H 0.44579 0.36163 0.47317 0.0
H508 H 0.43017 0.33310 0.48050 0.0
C509 C 0.59391 0.53777 0.48421 0.0
C510 C 0.61247 0.54727 0.48680 0.0
C511 C 0.61950 0.56192 0.50481 0.0
C512 C 0.63704 0.57038 0.50853 0.0
C513 C 0.64804 0.56533 0.49376 0.0
C514 C 0.64019 0.55088 0.47572 0.0
C515 C 0.62270 0.54165 0.47190 0.0
C516 C 0.72010 0.60095 0.51712 0.0
C517 C 0.70085 0.59158 0.50955 0.0
C518 C 0.69159 0.60030 0.50846 0.0
C519 C 0.67452 0.59153 0.50137 0.0
C520 C 0.66667 0.57440 0.49779 0.0
C521 C 0.67626 0.56601 0.49942 0.0
C522 C 0.69332 0.57425 0.50506 0.0
H523 H 0.59102 0.53143 0.46516 0.0
H524 H 0.58906 0.54565 0.48364 0.0
H525 H 0.61262 0.56597 0.51417 0.0
H526 H 0.64158 0.57977 0.52136 0.0
H527 H 0.64704 0.54709 0.46549 0.0
H528 H 0.61815 0.53202 0.45968 0.0
H529 H 0.72376 0.59276 0.52424 0.0
H530 H 0.72179 0.60882 0.53380 0.0
H531 H 0.69653 0.61184 0.51236 0.0
H532 H 0.66827 0.59752 0.49899 0.0
H533 H 0.67115 0.55438 0.49667 0.0
H534 H 0.69971 0.56832 0.50584 0.0
C535 C 0.54545 0.59359 0.50755 0.0
C536 C 0.55345 0.61221 0.50565 0.0
C537 C 0.55243 0.61985 0.47817 0.0
C538 C 0.55923 0.63746 0.47695 0.0
C539 C 0.56782 0.64793 0.50162 0.0
C540 C 0.56865 0.63948 0.52795 0.0
C541 C 0.56166 0.62190 0.53074 0.0
C542 C 0.59236 0.72044 0.49229 0.0
C543 C 0.58646 0.70105 0.49494 0.0
C544 C 0.58692 0.69208 0.47000 0.0
C545 C 0.58171 0.67488 0.47336 0.0
C546 C 0.57504 0.66664 0.50013 0.0
C547 C 0.57455 0.67594 0.52456 0.0
C548 C 0.58024 0.69310 0.52269 0.0
H549 H 0.55109 0.59021 0.52325 0.0
H550 H 0.54681 0.58897 0.48815 0.0
H551 H 0.54730 0.61332 0.46099 0.0
H552 H 0.55800 0.64242 0.45896 0.0
H553 H 0.57426 0.64596 0.54490 0.0
H554 H 0.56252 0.61694 0.54898 0.0
H555 H 0.58752 0.72400 0.50908 0.0
H556 H 0.58794 0.72262 0.47334 0.0
H557 H 0.59062 0.69732 0.45117 0.0
H558 H 0.58280 0.66879 0.45686 0.0
H559 H 0.57023 0.67056 0.54305 0.0
H560 H 0.57994 0.69929 0.53972 0.0
C561 C 0.06662 0.48896 0.85564 0.0
C562 C 0.07274 0.47969 0.83270 0.0
C563 C 0.07888 0.47043 0.80975 0.0
C564 C 0.08505 0.46120 0.78684 0.0
C565 C 0.09131 0.45203 0.76392 0.0
C566 C 0.09762 0.44289 0.74104 0.0
C567 C 0.48967 0.06726 0.85559 0.0
C568 C 0.48027 0.07329 0.83277 0.0
C569 C 0.47087 0.07933 0.80992 0.0
C570 C 0.46153 0.08540 0.78707 0.0
C571 C 0.45225 0.09153 0.76414 0.0
C572 C 0.44302 0.09768 0.74119 0.0
C573 C 0.96718 0.55243 0.14686 0.0
C574 C 0.96100 0.56163 0.16982 0.0
C575 C 0.95481 0.57085 0.19279 0.0
C576 C 0.94858 0.58002 0.21572 0.0
C577 C 0.94226 0.58915 0.23862 0.0
C578 C 0.93590 0.59825 0.26147 0.0
C579 C 0.55313 0.96780 0.14680 0.0
C580 C 0.56217 0.96148 0.16985 0.0
C581 C 0.57123 0.95516 0.19291 0.0
C582 C 0.58026 0.94880 0.21588 0.0
C583 C 0.58931 0.94238 0.23878 0.0
C584 C 0.59834 0.93593 0.26160 0.0
C585 C 0.48881 0.06695 0.14667 0.0
C586 C 0.47954 0.07306 0.16959 0.0
C587 C 0.47026 0.07918 0.19253 0.0
C588 C 0.46104 0.08533 0.21546 0.0
C589 C 0.45188 0.09155 0.23847 0.0
C590 C 0.44277 0.09780 0.26148 0.0
C591 C 0.06759 0.48956 0.14682 0.0
C592 C 0.07357 0.48021 0.16979 0.0
C593 C 0.07956 0.47084 0.19278 0.0
C594 C 0.08559 0.46151 0.21570 0.0
C595 C 0.09170 0.45221 0.23860 0.0
C596 C 0.09785 0.44294 0.26144 0.0
C597 C 0.96801 0.55301 0.85555 0.0
C598 C 0.96152 0.56199 0.83270 0.0
C599 C 0.95504 0.57098 0.80983 0.0
C600 C 0.94860 0.58000 0.78699 0.0
C601 C 0.94224 0.58910 0.76413 0.0
C602 C 0.93593 0.59823 0.74128 0.0
C603 C 0.55232 0.96741 0.85548 0.0
C604 C 0.56156 0.96116 0.83273 0.0
C605 C 0.57079 0.95491 0.80996 0.0
C606 C 0.57998 0.94863 0.78717 0.0
C607 C 0.58909 0.94230 0.76430 0.0
C608 C 0.59816 0.93594 0.74140 0.0
