data_{}
_symmetry_space_group_name_H-M    P1
_symmetry_Int_Tables_number       1
_symmetry_cell_setting            triclinic
loop_
_symmetry_equiv_pos_as_xyz
'x, y, z'
_cell_length_a     58.893
_cell_length_b     65.350
_cell_length_c     35.254
_cell_angle_alpha  92.873
_cell_angle_beta   89.917
_cell_angle_gamma  90.269
loop_
_atom_site_label
_atom_site_type_symbol
_atom_site_fract_x
_atom_site_fract_y
_atom_site_fract_z
_atom_type_partial_charge
C0 C 0.98873 0.00636 0.06097 0.0
C1 C 0.01404 0.00010 0.06034 0.0
C2 C 0.02087 0.97786 0.05871 0.0
C3 C 0.03218 0.01765 0.06133 0.0
C4 C 0.98190 0.02910 0.06259 0.0
C5 C 0.97058 0.98931 0.05998 0.0
C6 C 0.02349 0.96642 0.09547 0.0
C7 C 0.03209 0.94437 0.09387 0.0
C8 C 0.03452 0.93239 0.05546 0.0
C9 C 0.03190 0.94383 0.01871 0.0
C10 C 0.02329 0.96589 0.02030 0.0
C11 C 0.04075 0.02712 0.09946 0.0
C12 C 0.06009 0.04281 0.10035 0.0
C13 C 0.06847 0.05175 0.06332 0.0
C14 C 0.05990 0.04227 0.02519 0.0
C15 C 0.04056 0.02658 0.02430 0.0
C16 C 0.97928 0.04054 0.02584 0.0
C17 C 0.97067 0.06259 0.02743 0.0
C18 C 0.96824 0.07456 0.06584 0.0
C19 C 0.97086 0.06312 0.10259 0.0
C20 C 0.97947 0.04107 0.10100 0.0
C21 C 0.96201 0.97984 0.02184 0.0
C22 C 0.94267 0.96415 0.02095 0.0
C23 C 0.93429 0.95521 0.05798 0.0
C24 C 0.94287 0.96468 0.09612 0.0
C25 C 0.96220 0.98037 0.09701 0.0
H26 H 0.01900 0.97441 0.12396 0.0
H27 H 0.03672 0.93677 0.12121 0.0
H28 H 0.03637 0.93587 0.99019 0.0
H29 H 0.01866 0.97348 0.99296 0.0
H30 H 0.03266 0.02242 0.12712 0.0
H31 H 0.06833 0.04790 0.12853 0.0
H32 H 0.03232 0.02149 0.99612 0.0
H33 H 0.98376 0.03255 0.99734 0.0
H34 H 0.96604 0.07018 0.00010 0.0
H35 H 0.96639 0.07108 0.13112 0.0
H36 H 0.98410 0.03348 0.12834 0.0
H37 H 0.97010 0.98454 0.99418 0.0
H38 H 0.93443 0.95905 0.99278 0.0
H39 H 0.93480 0.96001 0.12381 0.0
H40 H 0.97044 0.98547 0.12518 0.0
H41 H 0.06797 0.04695 0.99749 0.0
Na42 Na 0.52320 0.48514 0.56827 0.0
Na43 Na 0.47955 0.52184 0.55316 0.0
C44 C 0.48523 0.48167 0.49708 0.0
C45 C 0.44354 0.52315 0.47553 0.0
C46 C 0.51428 0.53469 0.47971 0.0
C47 C 0.55905 0.49035 0.49183 0.0
O48 O 0.51088 0.51814 0.59357 0.0
O49 O 0.51355 0.51731 0.65575 0.0
O50 O 0.55377 0.48534 0.61302 0.0
O51 O 0.54976 0.49523 0.67593 0.0
O52 O 0.50327 0.47005 0.61754 0.0
O53 O 0.48597 0.48897 0.66269 0.0
O54 O 0.45630 0.51353 0.60348 0.0
O55 O 0.44696 0.50879 0.66363 0.0
O56 O 0.49187 0.48884 0.52786 0.0
O57 O 0.48919 0.48967 0.46567 0.0
O58 O 0.44897 0.52164 0.50841 0.0
O59 O 0.45299 0.51175 0.44550 0.0
O60 O 0.49947 0.53694 0.50388 0.0
O61 O 0.51678 0.51801 0.45874 0.0
O62 O 0.54645 0.49346 0.51795 0.0
O63 O 0.55578 0.49819 0.45780 0.0
C64 C 0.51752 0.52531 0.62434 0.0
C65 C 0.55920 0.48383 0.64590 0.0
C66 C 0.48847 0.47230 0.64172 0.0
C67 C 0.44370 0.51663 0.62960 0.0
C68 C 0.43071 0.34067 0.32991 0.0
C69 C 0.44323 0.32441 0.30472 0.0
C70 C 0.43112 0.31415 0.27003 0.0
C71 C 0.44340 0.29781 0.24462 0.0
C72 C 0.43111 0.28759 0.21002 0.0
C73 C 0.40658 0.29372 0.20098 0.0
C74 C 0.39435 0.31009 0.22630 0.0
C75 C 0.40662 0.32029 0.26084 0.0
C76 C 0.40995 0.27076 0.14206 0.0
C77 C 0.39500 0.26504 0.10752 0.0
C78 C 0.37903 0.24639 0.10823 0.0
C79 C 0.36103 0.24312 0.07693 0.0
C80 C 0.36083 0.25692 0.04276 0.0
C81 C 0.37832 0.27439 0.04042 0.0
C82 C 0.39539 0.27847 0.07289 0.0
C83 C 0.41163 0.29699 0.07215 0.0
C84 C 0.37981 0.23212 0.14174 0.0
C85 C 0.34263 0.25364 0.01171 0.0
C86 C 0.34297 0.22626 0.07990 0.0
C87 C 0.30194 0.22203 0.09020 0.0
C88 C 0.30665 0.19908 0.08222 0.0
C89 C 0.28678 0.18370 0.07970 0.0
C90 C 0.26223 0.19130 0.08517 0.0
C91 C 0.25754 0.21425 0.09347 0.0
C92 C 0.27742 0.22963 0.09598 0.0
C93 C 0.24240 0.17588 0.08225 0.0
C94 C 0.24723 0.15297 0.07377 0.0
C95 C 0.37796 0.28856 0.00687 0.0
C96 C 0.39427 0.29163 0.94336 0.0
C97 C 0.38110 0.31188 0.94245 0.0
C98 C 0.38672 0.32721 0.91200 0.0
C99 C 0.40554 0.32226 0.88264 0.0
C100 C 0.41865 0.30197 0.88354 0.0
C101 C 0.41301 0.28664 0.91393 0.0
C102 C 0.41138 0.33760 0.85238 0.0
C103 C 0.43036 0.33256 0.82338 0.0
O104 O 0.39451 0.28399 0.16698 0.0
O105 O 0.38958 0.27708 0.97424 0.0
O106 O 0.32133 0.23715 0.09142 0.0
H107 H 0.41255 0.34505 0.32278 0.0
H108 H 0.46139 0.31997 0.31177 0.0
H109 H 0.46155 0.29327 0.25141 0.0
H110 H 0.44015 0.27552 0.19113 0.0
H111 H 0.37622 0.31465 0.21943 0.0
H112 H 0.39757 0.33238 0.27965 0.0
H113 H 0.41533 0.25653 0.15713 0.0
H114 H 0.42542 0.27987 0.13301 0.0
H115 H 0.40638 0.30718 0.04839 0.0
H116 H 0.42976 0.29144 0.06703 0.0
H117 H 0.41067 0.30607 0.10057 0.0
H118 H 0.38823 0.24047 0.16723 0.0
H119 H 0.39013 0.21791 0.13305 0.0
H120 H 0.36187 0.22728 0.14964 0.0
H121 H 0.34448 0.26592 0.99006 0.0
H122 H 0.32510 0.25473 0.02539 0.0
H123 H 0.34475 0.23784 0.99695 0.0
H124 H 0.34070 0.21777 0.05111 0.0
H125 H 0.34799 0.21509 0.10223 0.0
H126 H 0.32484 0.19350 0.07801 0.0
H127 H 0.29023 0.16670 0.07370 0.0
H128 H 0.23936 0.21986 0.09765 0.0
H129 H 0.27399 0.24665 0.10196 0.0
H130 H 0.22418 0.18141 0.08630 0.0
H131 H 0.26546 0.14749 0.06975 0.0
H132 H 0.35983 0.29252 0.99880 0.0
H133 H 0.38787 0.30317 0.01488 0.0
H134 H 0.36732 0.31557 0.96443 0.0
H135 H 0.37703 0.34225 0.91128 0.0
H136 H 0.43258 0.29835 0.86177 0.0
H137 H 0.42279 0.27167 0.91481 0.0
H138 H 0.40173 0.35265 0.85147 0.0
H139 H 0.43998 0.31750 0.82440 0.0
C140 C 0.76624 0.46403 0.84059 0.0
C141 C 0.75321 0.44815 0.86314 0.0
C142 C 0.76465 0.43857 0.89721 0.0
C143 C 0.75187 0.42260 0.91999 0.0
C144 C 0.76349 0.41306 0.95397 0.0
C145 C 0.78787 0.41949 0.96502 0.0
C146 C 0.80060 0.43548 0.94234 0.0
C147 C 0.78900 0.44501 0.90841 0.0
C148 C 0.78336 0.39755 0.02097 0.0
C149 C 0.79766 0.39252 0.05559 0.0
C150 C 0.81356 0.37392 0.05338 0.0
C151 C 0.83098 0.37131 0.08521 0.0
C152 C 0.83060 0.38574 0.12113 0.0
C153 C 0.81315 0.40318 0.12474 0.0
C154 C 0.79668 0.40660 0.09189 0.0
C155 C 0.78050 0.42506 0.09409 0.0
C156 C 0.81334 0.35903 0.01804 0.0
C157 C 0.84823 0.38311 0.15271 0.0
C158 C 0.84902 0.35447 0.08106 0.0
C159 C 0.89021 0.35026 0.07233 0.0
C160 C 0.88527 0.32740 0.07723 0.0
C161 C 0.90504 0.31215 0.07886 0.0
C162 C 0.92970 0.31978 0.07558 0.0
C163 C 0.93462 0.34264 0.07035 0.0
C164 C 0.91485 0.35789 0.06873 0.0
C165 C 0.94941 0.30450 0.07759 0.0
C166 C 0.94435 0.28170 0.08299 0.0
C167 C 0.81294 0.41797 0.16008 0.0
C168 C 0.79551 0.42212 0.22319 0.0
C169 C 0.80873 0.44248 0.22728 0.0
C170 C 0.80262 0.45834 0.25936 0.0
C171 C 0.78326 0.45381 0.28718 0.0
C172 C 0.77010 0.43342 0.28309 0.0
C173 C 0.77623 0.41755 0.25107 0.0
C174 C 0.77692 0.46969 0.31906 0.0
C175 C 0.75741 0.46508 0.34649 0.0
O176 O 0.79928 0.41042 0.99846 0.0
O177 O 0.80070 0.40702 0.19073 0.0
O178 O 0.87090 0.36527 0.07199 0.0
H179 H 0.78428 0.46865 0.84920 0.0
H180 H 0.73518 0.44349 0.85462 0.0
H181 H 0.73384 0.41785 0.91170 0.0
H182 H 0.75407 0.40127 0.97092 0.0
H183 H 0.81862 0.44027 0.95070 0.0
H184 H 0.79842 0.45682 0.89155 0.0
H185 H 0.77820 0.38300 0.00385 0.0
H186 H 0.76776 0.40676 0.03037 0.0
H187 H 0.78536 0.43572 0.11940 0.0
H188 H 0.76227 0.41951 0.09761 0.0
H189 H 0.78201 0.43364 0.06682 0.0
H190 H 0.80542 0.36688 0.99314 0.0
H191 H 0.80282 0.34491 0.02445 0.0
H192 H 0.83139 0.35413 0.01045 0.0
H193 H 0.84603 0.39579 0.17581 0.0
H194 H 0.86600 0.38404 0.14005 0.0
H195 H 0.84578 0.36754 0.16542 0.0
H196 H 0.85075 0.34650 0.10895 0.0
H197 H 0.84437 0.34286 0.05708 0.0
H198 H 0.86700 0.32180 0.07982 0.0
H199 H 0.90142 0.29522 0.08258 0.0
H200 H 0.95288 0.34827 0.06778 0.0
H201 H 0.91844 0.37484 0.06503 0.0
H202 H 0.96771 0.31006 0.07515 0.0
H203 H 0.92604 0.27618 0.08542 0.0
H204 H 0.83094 0.42218 0.16957 0.0
H205 H 0.80324 0.43241 0.15337 0.0
H206 H 0.82291 0.44584 0.20644 0.0
H207 H 0.81234 0.47345 0.26244 0.0
H208 H 0.75577 0.43012 0.30372 0.0
H209 H 0.76641 0.40250 0.24784 0.0
H210 H 0.78661 0.48482 0.32232 0.0
H211 H 0.74776 0.44993 0.34312 0.0
C212 C 0.23779 0.54401 0.28095 0.0
C213 C 0.21896 0.53393 0.25606 0.0
C214 C 0.20957 0.54518 0.22214 0.0
C215 C 0.19067 0.53532 0.19704 0.0
C216 C 0.18135 0.54674 0.16322 0.0
C217 C 0.19091 0.56797 0.15466 0.0
C218 C 0.20983 0.57777 0.17966 0.0
C219 C 0.21914 0.56638 0.21343 0.0
C220 C 0.16627 0.56615 0.09657 0.0
C221 C 0.16219 0.57951 0.06270 0.0
C222 C 0.14332 0.59569 0.06469 0.0
C223 C 0.14222 0.61160 0.03406 0.0
C224 C 0.15808 0.60979 0.99990 0.0
C225 C 0.17552 0.59233 0.99566 0.0
C226 C 0.17761 0.57719 0.02746 0.0
C227 C 0.19630 0.56078 0.02544 0.0
C228 C 0.12688 0.59700 0.09881 0.0
C229 C 0.15698 0.62588 0.96890 0.0
C230 C 0.12550 0.62952 0.03829 0.0
C231 C 0.12506 0.66693 0.05001 0.0
C232 C 0.09937 0.66483 0.04286 0.0
C233 C 0.08458 0.68413 0.04160 0.0
C234 C 0.09550 0.70550 0.04749 0.0
C235 C 0.12119 0.70759 0.05496 0.0
C236 C 0.13598 0.68828 0.05621 0.0
C237 C 0.08068 0.72476 0.04583 0.0
C238 C 0.05503 0.72254 0.03817 0.0
C239 C 0.19180 0.59064 0.96150 0.0
C240 C 0.19459 0.57456 0.89731 0.0
C241 C 0.21837 0.58435 0.89594 0.0
C242 C 0.23523 0.57725 0.86465 0.0
C243 C 0.22827 0.56032 0.83491 0.0
C244 C 0.20446 0.55058 0.83628 0.0
C245 C 0.18760 0.55771 0.86751 0.0
C246 C 0.24513 0.55301 0.80379 0.0
C247 C 0.23805 0.53596 0.77441 0.0
O248 O 0.18208 0.57914 0.12141 0.0
O249 O 0.17848 0.58076 0.92898 0.0
O250 O 0.13964 0.64806 0.05000 0.0
H251 H 0.24471 0.55974 0.27417 0.0
H252 H 0.21199 0.51820 0.26274 0.0
H253 H 0.18359 0.51961 0.20348 0.0
H254 H 0.16739 0.53947 0.14456 0.0
H255 H 0.21694 0.59346 0.17314 0.0
H256 H 0.23312 0.57364 0.23200 0.0
H257 H 0.14972 0.56301 0.11210 0.0
H258 H 0.17483 0.55121 0.08666 0.0
H259 H 0.20854 0.56406 0.00139 0.0
H260 H 0.18833 0.54498 0.02001 0.0
H261 H 0.20591 0.56126 0.05353 0.0
H262 H 0.13473 0.58909 0.12370 0.0
H263 H 0.11025 0.58900 0.09040 0.0
H264 H 0.12333 0.61372 0.10746 0.0
H265 H 0.17073 0.62261 0.94664 0.0
H266 H 0.15982 0.64175 0.98307 0.0
H267 H 0.13958 0.62527 0.95474 0.0
H268 H 0.11689 0.63188 0.00991 0.0
H269 H 0.11223 0.62652 0.06096 0.0
H270 H 0.09133 0.64899 0.03834 0.0
H271 H 0.06555 0.68261 0.03622 0.0
H272 H 0.12925 0.72342 0.05946 0.0
H273 H 0.15502 0.68978 0.06158 0.0
H274 H 0.08867 0.74063 0.05020 0.0
H275 H 0.04709 0.70666 0.03383 0.0
H276 H 0.19827 0.60637 0.95380 0.0
H277 H 0.20672 0.58045 0.96859 0.0
H278 H 0.22353 0.59675 0.91820 0.0
H279 H 0.25288 0.58444 0.86358 0.0
H280 H 0.19936 0.53805 0.81422 0.0
H281 H 0.17002 0.55043 0.86873 0.0
H282 H 0.26279 0.56017 0.80254 0.0
H283 H 0.22038 0.52884 0.77579 0.0
C284 C 0.57073 0.66736 0.79163 0.0
C285 C 0.58995 0.65779 0.81434 0.0
C286 C 0.60002 0.66971 0.84919 0.0
C287 C 0.61931 0.66038 0.87214 0.0
C288 C 0.62931 0.67246 0.90692 0.0
C289 C 0.62003 0.69383 0.91859 0.0
C290 C 0.60072 0.70312 0.89574 0.0
C291 C 0.59073 0.69106 0.86101 0.0
C292 C 0.64570 0.69318 0.97525 0.0
C293 C 0.65047 0.70718 0.01058 0.0
C294 C 0.66939 0.72342 0.00964 0.0
C295 C 0.67115 0.73991 0.04220 0.0
C296 C 0.65592 0.73866 0.07758 0.0
C297 C 0.63844 0.72118 0.07992 0.0
C298 C 0.63570 0.70544 0.04634 0.0
C299 C 0.61695 0.68897 0.04727 0.0
C300 C 0.68521 0.72419 0.97483 0.0
C301 C 0.65766 0.75533 0.10991 0.0
C302 C 0.68789 0.75784 0.03933 0.0
C303 C 0.68833 0.79509 0.03220 0.0
C304 C 0.71412 0.79322 0.03780 0.0
C305 C 0.72905 0.81263 0.04070 0.0
C306 C 0.71814 0.83387 0.03800 0.0
C307 C 0.69234 0.83572 0.03207 0.0
C308 C 0.67742 0.81630 0.02918 0.0
C309 C 0.73310 0.85325 0.04129 0.0
C310 C 0.75887 0.85127 0.04738 0.0
C311 C 0.62278 0.72004 0.11472 0.0
C312 C 0.62107 0.70510 0.17709 0.0
C313 C 0.59738 0.71483 0.18088 0.0
C314 C 0.58106 0.70821 0.21216 0.0
C315 C 0.58846 0.69184 0.23948 0.0
C316 C 0.61218 0.68216 0.23571 0.0
C317 C 0.62851 0.68880 0.20448 0.0
C318 C 0.57214 0.68502 0.27056 0.0
C319 C 0.57965 0.66851 0.29749 0.0
O320 O 0.62952 0.70566 0.95279 0.0
O321 O 0.63663 0.71080 0.14537 0.0
O322 O 0.67365 0.77614 0.03062 0.0
H323 H 0.56403 0.68319 0.80070 0.0
H324 H 0.59671 0.64196 0.80536 0.0
H325 H 0.62618 0.64457 0.86340 0.0
H326 H 0.64356 0.66559 0.92399 0.0
H327 H 0.59382 0.71891 0.90455 0.0
H328 H 0.57646 0.69793 0.84403 0.0
H329 H 0.66195 0.68981 0.95849 0.0
H330 H 0.63724 0.67836 0.98375 0.0
H331 H 0.60517 0.69263 0.07236 0.0
H332 H 0.62493 0.67328 0.05036 0.0
H333 H 0.60684 0.68889 0.01971 0.0
H334 H 0.67687 0.71578 0.94934 0.0
H335 H 0.70194 0.71639 0.98142 0.0
H336 H 0.68870 0.74078 0.96806 0.0
H337 H 0.64430 0.75241 0.13246 0.0
H338 H 0.65465 0.77095 0.09783 0.0
H339 H 0.67531 0.75505 0.12312 0.0
H340 H 0.69702 0.76076 0.06759 0.0
H341 H 0.70072 0.75448 0.01561 0.0
H342 H 0.72215 0.77748 0.03996 0.0
H343 H 0.74815 0.81129 0.04494 0.0
H344 H 0.68429 0.85145 0.02993 0.0
H345 H 0.65830 0.81763 0.02496 0.0
H346 H 0.72512 0.86902 0.03928 0.0
H347 H 0.76679 0.83548 0.04937 0.0
H348 H 0.61655 0.73590 0.12469 0.0
H349 H 0.60768 0.70965 0.10711 0.0
H350 H 0.59189 0.72681 0.16040 0.0
H351 H 0.56348 0.71536 0.21501 0.0
H352 H 0.61761 0.67004 0.25597 0.0
H353 H 0.64602 0.68156 0.20147 0.0
H354 H 0.55455 0.69213 0.27359 0.0
H355 H 0.59725 0.66143 0.29435 0.0
C356 C 0.13373 0.09025 0.06681 0.0
C357 C 0.15019 0.08506 0.03376 0.0
C358 C 0.17288 0.09687 0.03487 0.0
C359 C 0.17616 0.11230 0.06890 0.0
C360 C 0.17137 0.09913 0.10306 0.0
C361 C 0.14866 0.08733 0.10194 0.0
C362 C 0.13194 0.11374 0.06619 0.0
C363 C 0.15465 0.12554 0.06731 0.0
C364 C 0.11103 0.07846 0.06566 0.0
C365 C 0.08831 0.06667 0.06446 0.0
C366 C 0.19886 0.12411 0.06999 0.0
C367 C 0.22155 0.13593 0.07106 0.0
H368 H 0.14520 0.07313 0.01052 0.0
H369 H 0.18597 0.09391 0.01140 0.0
H370 H 0.18427 0.09858 0.12706 0.0
H371 H 0.14386 0.07724 0.12618 0.0
H372 H 0.11457 0.12129 0.06497 0.0
H373 H 0.15476 0.14297 0.06694 0.0
C374 C 0.96287 0.15630 0.07338 0.0
C375 C 0.96402 0.16656 0.11363 0.0
C376 C 0.96307 0.19013 0.11591 0.0
C377 C 0.96107 0.20036 0.07765 0.0
C378 C 0.94036 0.18935 0.05929 0.0
C379 C 0.94132 0.16577 0.05700 0.0
C380 C 0.98200 0.16730 0.05248 0.0
C381 C 0.98104 0.19087 0.05477 0.0
C382 C 0.96384 0.13273 0.07111 0.0
C383 C 0.96484 0.10916 0.06887 0.0
C384 C 0.96013 0.22393 0.07994 0.0
C385 C 0.95920 0.24751 0.08224 0.0
H386 H 0.96548 0.15674 0.13934 0.0
H387 H 0.96384 0.19887 0.14469 0.0
H388 H 0.92561 0.19865 0.04844 0.0
H389 H 0.92664 0.15650 0.04379 0.0
H390 H 0.99568 0.15799 0.03667 0.0
H391 H 0.99460 0.20014 0.04004 0.0
C392 C 0.03974 0.85066 0.04796 0.0
C393 C 0.04330 0.84057 0.00799 0.0
C394 C 0.04428 0.81700 0.00572 0.0
C395 C 0.04153 0.80660 0.04371 0.0
C396 C 0.01934 0.81602 0.05960 0.0
C397 C 0.01838 0.83959 0.06188 0.0
C398 C 0.05878 0.84109 0.07105 0.0
C399 C 0.05974 0.81752 0.06878 0.0
C400 C 0.03880 0.87423 0.05021 0.0
C401 C 0.03788 0.89781 0.05245 0.0
C402 C 0.04251 0.78303 0.04143 0.0
C403 C 0.04351 0.75946 0.03915 0.0
H404 H 0.04503 0.85050 0.98245 0.0
H405 H 0.04688 0.80838 0.97713 0.0
H406 H 0.00495 0.80563 0.06878 0.0
H407 H 0.00252 0.84773 0.07333 0.0
H408 H 0.07103 0.85137 0.08835 0.0
H409 H 0.07335 0.80927 0.08508 0.0
C410 C 0.86903 0.91669 0.05453 0.0
C411 C 0.86984 0.89474 0.06844 0.0
C412 C 0.84714 0.88294 0.06735 0.0
C413 C 0.82661 0.89463 0.05246 0.0
C414 C 0.83528 0.90170 0.01399 0.0
C415 C 0.85798 0.91351 0.01510 0.0
C416 C 0.84970 0.92644 0.07859 0.0
C417 C 0.82700 0.91463 0.07748 0.0
C418 C 0.89174 0.92849 0.05567 0.0
C419 C 0.91445 0.94028 0.05685 0.0
C420 C 0.80391 0.88283 0.05138 0.0
C421 C 0.78120 0.87103 0.05033 0.0
H422 H 0.88655 0.88823 0.07866 0.0
H423 H 0.84632 0.86660 0.07720 0.0
H424 H 0.82500 0.89810 0.98707 0.0
H425 H 0.86553 0.91926 0.98779 0.0
H426 H 0.85273 0.94146 0.09573 0.0
H427 H 0.81185 0.92085 0.09454 0.0
C428 C 0.43618 0.40610 0.73478 0.0
C429 C 0.45585 0.42046 0.74710 0.0
C430 C 0.46405 0.41765 0.70559 0.0
C431 C 0.44433 0.40316 0.69344 0.0
C432 C 0.45255 0.38851 0.74307 0.0
C433 C 0.46074 0.38569 0.70155 0.0
C434 C 0.47228 0.40301 0.75520 0.0
C435 C 0.48042 0.40006 0.71385 0.0
C436 C 0.47122 0.43595 0.68233 0.0
C437 C 0.47837 0.45426 0.65911 0.0
C438 C 0.44534 0.37037 0.76669 0.0
C439 C 0.43813 0.35225 0.79034 0.0
H440 H 0.41897 0.40318 0.74837 0.0
H441 H 0.45615 0.43743 0.75636 0.0
H442 H 0.43670 0.40818 0.66572 0.0
H443 H 0.46046 0.36872 0.69231 0.0
H444 H 0.47995 0.39794 0.78287 0.0
H445 H 0.49761 0.40297 0.70018 0.0
C446 C 0.66120 0.48201 0.77136 0.0
C447 C 0.65769 0.49479 0.73642 0.0
C448 C 0.64572 0.47557 0.71864 0.0
C449 C 0.64940 0.46279 0.75373 0.0
C450 C 0.68274 0.47390 0.75078 0.0
C451 C 0.67077 0.45468 0.73302 0.0
C452 C 0.67905 0.48668 0.71568 0.0
C453 C 0.66725 0.46745 0.69807 0.0
C454 C 0.62258 0.47673 0.69859 0.0
C455 C 0.59943 0.47792 0.67856 0.0
C456 C 0.70588 0.47299 0.77090 0.0
C457 C 0.72902 0.47210 0.79103 0.0
H458 H 0.66544 0.48672 0.80212 0.0
H459 H 0.64685 0.50888 0.73207 0.0
H460 H 0.63286 0.45482 0.76129 0.0
H461 H 0.68163 0.44060 0.73736 0.0
H462 H 0.69561 0.49460 0.70807 0.0
H463 H 0.66297 0.46270 0.66734 0.0
C464 C 0.66631 0.49916 0.41662 0.0
C465 C 0.64736 0.48436 0.40276 0.0
C466 C 0.64240 0.48177 0.44524 0.0
C467 C 0.66152 0.49656 0.45898 0.0
C468 C 0.68112 0.47984 0.41879 0.0
C469 C 0.67617 0.47726 0.46127 0.0
C470 C 0.66200 0.46505 0.40506 0.0
C471 C 0.65722 0.46247 0.44743 0.0
C472 C 0.61815 0.48300 0.46157 0.0
C473 C 0.59389 0.48424 0.47786 0.0
C474 C 0.70527 0.47864 0.40204 0.0
C475 C 0.72941 0.47745 0.38524 0.0
H476 H 0.67607 0.51147 0.40152 0.0
H477 H 0.63081 0.48713 0.38714 0.0
H478 H 0.65473 0.50772 0.48213 0.0
H479 H 0.69273 0.47448 0.47687 0.0
H480 H 0.66881 0.45386 0.38199 0.0
H481 H 0.64746 0.45017 0.46261 0.0
C482 C 0.34125 0.54367 0.35633 0.0
C483 C 0.34445 0.55112 0.39803 0.0
C484 C 0.35703 0.53073 0.40256 0.0
C485 C 0.35366 0.52329 0.36071 0.0
C486 C 0.32002 0.53239 0.37043 0.0
C487 C 0.33259 0.51200 0.37493 0.0
C488 C 0.32339 0.53982 0.41228 0.0
C489 C 0.33580 0.51944 0.41664 0.0
C490 C 0.38017 0.52981 0.42268 0.0
C491 C 0.40331 0.52892 0.44282 0.0
C492 C 0.29687 0.53355 0.35039 0.0
C493 C 0.27373 0.53474 0.33036 0.0
H494 H 0.33680 0.55229 0.33003 0.0
H495 H 0.35488 0.56430 0.41150 0.0
H496 H 0.37042 0.51728 0.34847 0.0
H497 H 0.32215 0.49882 0.36146 0.0
H498 H 0.30662 0.54578 0.42454 0.0
H499 H 0.34028 0.51079 0.44288 0.0
C500 C 0.33800 0.50949 0.71093 0.0
C501 C 0.34247 0.50880 0.66792 0.0
C502 C 0.36058 0.52545 0.67710 0.0
C503 C 0.35593 0.52615 0.72022 0.0
C504 C 0.32186 0.52739 0.70356 0.0
C505 C 0.33996 0.54404 0.71277 0.0
C506 C 0.32652 0.52670 0.66044 0.0
C507 C 0.34445 0.54336 0.66976 0.0
C508 C 0.38475 0.52414 0.66044 0.0
C509 C 0.40891 0.52279 0.64376 0.0
C510 C 0.29763 0.52850 0.71999 0.0
C511 C 0.27339 0.52958 0.73639 0.0
H512 H 0.32917 0.49816 0.72967 0.0
H513 H 0.34997 0.49634 0.64794 0.0
H514 H 0.37269 0.52566 0.73628 0.0
H515 H 0.33245 0.55651 0.73274 0.0
H516 H 0.30975 0.52725 0.64440 0.0
H517 H 0.35332 0.55470 0.65109 0.0
C518 C 0.52909 0.60522 0.36837 0.0
C519 C 0.54472 0.58677 0.37327 0.0
C520 C 0.53872 0.58933 0.41586 0.0
C521 C 0.52314 0.60791 0.41078 0.0
C522 C 0.55021 0.61847 0.37837 0.0
C523 C 0.54420 0.62104 0.42095 0.0
C524 C 0.56578 0.59989 0.38346 0.0
C525 C 0.55982 0.60258 0.42587 0.0
C526 C 0.53155 0.57103 0.43911 0.0
C527 C 0.52438 0.55272 0.46232 0.0
C528 C 0.55741 0.63661 0.35475 0.0
C529 C 0.56462 0.65473 0.33110 0.0
H530 H 0.52046 0.61113 0.34217 0.0
H531 H 0.54294 0.56998 0.36329 0.0
H532 H 0.50651 0.60569 0.42667 0.0
H533 H 0.54599 0.63783 0.43093 0.0
H534 H 0.58244 0.60214 0.36766 0.0
H535 H 0.56841 0.59669 0.45213 0.0
C536 C 0.47895 0.40021 0.41560 0.0
C537 C 0.47152 0.42144 0.40352 0.0
C538 C 0.46439 0.42541 0.44536 0.0
C539 C 0.47176 0.40405 0.45727 0.0
C540 C 0.45402 0.39374 0.40849 0.0
C541 C 0.44690 0.39769 0.45033 0.0
C542 C 0.44665 0.41511 0.39659 0.0
C543 C 0.43947 0.41893 0.43827 0.0
C544 C 0.47093 0.44526 0.46824 0.0
C545 C 0.47749 0.46511 0.49107 0.0
C546 C 0.44761 0.37397 0.38525 0.0
C547 C 0.44120 0.35423 0.36196 0.0
H548 H 0.49077 0.38834 0.40152 0.0
H549 H 0.48177 0.43505 0.39373 0.0
H550 H 0.48216 0.40566 0.48453 0.0
H551 H 0.43664 0.38409 0.46011 0.0
H552 H 0.43620 0.41348 0.36940 0.0
H553 H 0.42766 0.43079 0.45244 0.0
C554 C 0.56497 0.59510 0.70735 0.0
C555 C 0.54473 0.58171 0.71840 0.0
C556 C 0.53813 0.58162 0.67606 0.0
C557 C 0.55842 0.59516 0.66517 0.0
C558 C 0.54850 0.61330 0.71294 0.0
C559 C 0.54191 0.61323 0.67059 0.0
C560 C 0.52821 0.59976 0.72382 0.0
C561 C 0.52167 0.59983 0.68163 0.0
C562 C 0.53167 0.56176 0.65318 0.0
C563 C 0.52521 0.54188 0.63035 0.0
C564 C 0.55499 0.63304 0.73619 0.0
C565 C 0.56149 0.65276 0.75948 0.0
H566 H 0.58167 0.59890 0.72248 0.0
H567 H 0.54391 0.56543 0.72855 0.0
H568 H 0.56702 0.58817 0.63862 0.0
H569 H 0.54272 0.62951 0.66047 0.0
H570 H 0.51957 0.60679 0.75031 0.0
H571 H 0.50499 0.59603 0.66641 0.0
