data_{}
_symmetry_space_group_name_H-M    P1
_symmetry_Int_Tables_number       1
_symmetry_cell_setting            triclinic
loop_
_symmetry_equiv_pos_as_xyz
'x, y, z'
_cell_length_a     49.039
_cell_length_b     67.082
_cell_length_c     35.951
_cell_angle_alpha  90.120
_cell_angle_beta   90.425
_cell_angle_gamma  92.135
loop_
_atom_site_label
_atom_site_type_symbol
_atom_site_fract_x
_atom_site_fract_y
_atom_site_fract_z
_atom_type_partial_charge
H0 H 0.95488 0.05444 0.97387 0.0
H1 H 0.04761 0.04509 0.95517 0.0
H2 H 0.03587 0.02302 0.95606 0.0
H3 H 0.02268 0.05296 0.00835 0.0
H4 H 0.01233 0.03060 0.01225 0.0
H5 H 0.99990 0.05476 0.95041 0.0
H6 H 0.98874 0.03265 0.95542 0.0
H7 H 0.97146 0.03431 0.03569 0.0
H8 H 0.94283 0.04372 0.03091 0.0
H9 H 0.04620 0.01576 0.03967 0.0
H10 H 0.07609 0.00867 0.03540 0.0
H11 H 0.06255 0.05136 0.03200 0.0
H12 H 0.09090 0.04134 0.03443 0.0
H13 H 0.99066 0.07907 0.99466 0.0
H14 H 0.98225 0.06989 0.03329 0.0
H15 H 0.05135 0.97569 0.04643 0.0
H16 H 0.95862 0.98504 0.06513 0.0
H17 H 0.97035 0.00711 0.06424 0.0
H18 H 0.98355 0.97717 0.01195 0.0
H19 H 0.99390 0.99990 0.00805 0.0
H20 H 0.00657 0.97537 0.06989 0.0
H21 H 0.01749 0.99747 0.06488 0.0
H22 H 0.03477 0.99582 0.98461 0.0
H23 H 0.06340 0.98640 0.98939 0.0
H24 H 0.96003 0.01437 0.98063 0.0
H25 H 0.93013 0.02146 0.98490 0.0
H26 H 0.94368 0.97877 0.98830 0.0
H27 H 0.91533 0.98879 0.98587 0.0
H28 H 0.01556 0.95106 0.02563 0.0
H29 H 0.02398 0.96023 0.98701 0.0
C30 C 0.04174 0.03431 0.97152 0.0
C31 C 0.01757 0.04092 0.99455 0.0
C32 C 0.99391 0.04486 0.96863 0.0
C33 C 0.95752 0.03758 0.01769 0.0
C34 C 0.05958 0.01156 0.02179 0.0
C35 C 0.07703 0.04585 0.01737 0.0
C36 C 0.97607 0.07208 0.00795 0.0
C37 C 0.96449 0.99582 0.04878 0.0
C38 C 0.98865 0.98921 0.02575 0.0
C39 C 0.01232 0.98527 0.05167 0.0
C40 C 0.04871 0.99255 0.00261 0.0
C41 C 0.94665 0.01857 0.99851 0.0
C42 C 0.92920 0.98428 0.00293 0.0
C43 C 0.03016 0.95805 0.01235 0.0
N44 N 0.06566 0.02840 0.99552 0.0
N45 N 0.96947 0.05216 0.98923 0.0
N46 N 0.94056 0.00173 0.02478 0.0
N47 N 0.03676 0.97797 0.03107 0.0
P48 P 0.49688 0.53093 0.47051 0.0
P49 P 0.51155 0.49020 0.54855 0.0
P50 P 0.51503 0.49123 0.46977 0.0
P51 P 0.49341 0.52990 0.54929 0.0
H52 H 0.46123 0.54877 0.47923 0.0
H53 H 0.50625 0.46036 0.47104 0.0
H54 H 0.49916 0.45950 0.53488 0.0
H55 H 0.46174 0.54995 0.54385 0.0
N56 N 0.49425 0.50800 0.46012 0.0
N57 N 0.46702 0.54110 0.46202 0.0
N58 N 0.49946 0.46909 0.46013 0.0
H59 H 0.53097 0.50141 0.59957 0.0
N60 N 0.49003 0.50667 0.55645 0.0
N61 N 0.49591 0.46785 0.55235 0.0
N62 N 0.46258 0.53962 0.55415 0.0
H63 H 0.53659 0.49923 0.42148 0.0
H64 H 0.52552 0.53258 0.42444 0.0
N65 N 0.52738 0.48952 0.51038 0.0
N66 N 0.54123 0.49435 0.44030 0.0
N67 N 0.53438 0.49262 0.58292 0.0
N68 N 0.50520 0.53807 0.51116 0.0
N69 N 0.51956 0.54069 0.44083 0.0
N70 N 0.51361 0.53920 0.58354 0.0
H71 H 0.51229 0.53273 0.60175 0.0
C72 C 0.51747 0.29839 0.25909 0.0
C73 C 0.53453 0.28418 0.23587 0.0
C74 C 0.52148 0.27327 0.20209 0.0
C75 C 0.53825 0.25895 0.17866 0.0
C76 C 0.52497 0.24806 0.14497 0.0
C77 C 0.49496 0.25149 0.13486 0.0
C78 C 0.47825 0.26585 0.15820 0.0
C79 C 0.49150 0.27672 0.19184 0.0
C80 C 0.50209 0.23010 0.07868 0.0
C81 C 0.48511 0.22328 0.04467 0.0
C82 C 0.46811 0.20359 0.04601 0.0
C83 C 0.44717 0.19879 0.01491 0.0
C84 C 0.44563 0.21237 0.98052 0.0
C85 C 0.46459 0.23111 0.97771 0.0
C86 C 0.48432 0.23659 0.00988 0.0
C87 C 0.50165 0.25618 0.00853 0.0
C88 C 0.47042 0.18961 0.07980 0.0
C89 C 0.42444 0.20755 0.94966 0.0
C90 C 0.42745 0.18058 0.01828 0.0
C91 C 0.37871 0.17213 0.02721 0.0
C92 C 0.38704 0.15050 0.02102 0.0
C93 C 0.36502 0.13357 0.01885 0.0
C94 C 0.33470 0.13832 0.02287 0.0
C95 C 0.32639 0.15995 0.02938 0.0
C96 C 0.34842 0.17688 0.03154 0.0
C97 C 0.31274 0.12137 0.02031 0.0
C98 C 0.32121 0.09979 0.01364 0.0
C99 C 0.46281 0.24503 0.94391 0.0
C100 C 0.48249 0.25020 0.88201 0.0
C101 C 0.46440 0.26842 0.87937 0.0
C102 C 0.46962 0.28406 0.84873 0.0
C103 C 0.49296 0.28146 0.82092 0.0
C104 C 0.51098 0.26321 0.82356 0.0
C105 C 0.50574 0.24756 0.85413 0.0
C106 C 0.49844 0.29714 0.79047 0.0
C107 C 0.52198 0.29448 0.76303 0.0
O108 O 0.48189 0.24109 0.10173 0.0
O109 O 0.47829 0.23541 0.91305 0.0
O110 O 0.40019 0.18876 0.02811 0.0
H111 H 0.49528 0.30080 0.25118 0.0
H112 H 0.55673 0.28173 0.24369 0.0
H113 H 0.56045 0.25640 0.18624 0.0
H114 H 0.53733 0.23747 0.12754 0.0
H115 H 0.45606 0.26842 0.15055 0.0
H116 H 0.47913 0.28732 0.20919 0.0
H117 H 0.51004 0.21679 0.09456 0.0
H118 H 0.51965 0.24060 0.06977 0.0
H119 H 0.49438 0.26567 0.98441 0.0
H120 H 0.52404 0.25275 0.00450 0.0
H121 H 0.49924 0.26464 0.03578 0.0
H122 H 0.47934 0.19836 0.10455 0.0
H123 H 0.48446 0.17702 0.07255 0.0
H124 H 0.44942 0.18300 0.08723 0.0
H125 H 0.42543 0.21979 0.92771 0.0
H126 H 0.40322 0.20666 0.96240 0.0
H127 H 0.42892 0.19261 0.93628 0.0
H128 H 0.42592 0.17236 0.99051 0.0
H129 H 0.43457 0.17014 0.04106 0.0
H130 H 0.40950 0.14703 0.01789 0.0
H131 H 0.37114 0.11754 0.01418 0.0
H132 H 0.30395 0.16345 0.03249 0.0
H133 H 0.34232 0.19293 0.03620 0.0
H134 H 0.29026 0.12478 0.02330 0.0
H135 H 0.34371 0.09642 0.01067 0.0
H136 H 0.44070 0.24704 0.93511 0.0
H137 H 0.47294 0.26013 0.95117 0.0
H138 H 0.44730 0.27037 0.90020 0.0
H139 H 0.45630 0.29759 0.84673 0.0
H140 H 0.52825 0.26133 0.80293 0.0
H141 H 0.51916 0.23410 0.85630 0.0
H142 H 0.48517 0.31069 0.78829 0.0
H143 H 0.53521 0.28091 0.76533 0.0
C144 C 0.73955 0.43403 0.76793 0.0
C145 C 0.72190 0.41926 0.79105 0.0
C146 C 0.73450 0.40882 0.82480 0.0
C147 C 0.71714 0.39395 0.84814 0.0
C148 C 0.72997 0.38354 0.88181 0.0
C149 C 0.76011 0.38800 0.89200 0.0
C150 C 0.77742 0.40290 0.86876 0.0
C151 C 0.76462 0.41330 0.83514 0.0
C152 C 0.75209 0.36642 0.94807 0.0
C153 C 0.76878 0.36021 0.98209 0.0
C154 C 0.78502 0.34107 0.98071 0.0
C155 C 0.80576 0.33701 0.01182 0.0
C156 C 0.80778 0.35069 0.04628 0.0
C157 C 0.78953 0.36881 0.04913 0.0
C158 C 0.77004 0.37358 0.01694 0.0
C159 C 0.75346 0.39261 0.01833 0.0
C160 C 0.78221 0.32697 0.94685 0.0
C161 C 0.82876 0.34662 0.07716 0.0
C162 C 0.82478 0.31945 0.00843 0.0
C163 C 0.87324 0.31264 0.99990 0.0
C164 C 0.86405 0.29071 0.00564 0.0
C165 C 0.88543 0.27452 0.00779 0.0
C166 C 0.91595 0.28029 0.00386 0.0
C167 C 0.92512 0.30221 0.99746 0.0
C168 C 0.90373 0.31840 0.99532 0.0
C169 C 0.93727 0.26407 0.00639 0.0
C170 C 0.92795 0.24220 0.01295 0.0
C171 C 0.79182 0.38283 0.08299 0.0
C172 C 0.77226 0.38741 0.14487 0.0
C173 C 0.79106 0.40625 0.14763 0.0
C174 C 0.78641 0.42176 0.17832 0.0
C175 C 0.76293 0.41841 0.20607 0.0
C176 C 0.74419 0.39953 0.20332 0.0
C177 C 0.74886 0.38401 0.17268 0.0
C178 C 0.75801 0.43395 0.23657 0.0
C179 C 0.73432 0.43052 0.26395 0.0
O180 O 0.77275 0.37807 0.92511 0.0
O181 O 0.77592 0.37271 0.11377 0.0
O182 O 0.85239 0.32855 0.99869 0.0
H183 H 0.76184 0.43719 0.77590 0.0
H184 H 0.69960 0.41605 0.78317 0.0
H185 H 0.69483 0.39064 0.84050 0.0
H186 H 0.71716 0.37255 0.89917 0.0
H187 H 0.79972 0.40624 0.87647 0.0
H188 H 0.77743 0.42430 0.81787 0.0
H189 H 0.74363 0.35281 0.93212 0.0
H190 H 0.73491 0.37634 0.95699 0.0
H191 H 0.76107 0.40238 0.04252 0.0
H192 H 0.73092 0.38843 0.02230 0.0
H193 H 0.75623 0.40112 0.99113 0.0
H194 H 0.77365 0.33539 0.92212 0.0
H195 H 0.76765 0.31390 0.95401 0.0
H196 H 0.80297 0.32105 0.93944 0.0
H197 H 0.82822 0.35886 0.09917 0.0
H198 H 0.84998 0.34643 0.06447 0.0
H199 H 0.82369 0.33153 0.09047 0.0
H200 H 0.82596 0.31131 0.03616 0.0
H201 H 0.81728 0.30874 0.98559 0.0
H202 H 0.84144 0.28649 0.00871 0.0
H203 H 0.87868 0.25828 0.01238 0.0
H204 H 0.94772 0.30646 0.99441 0.0
H205 H 0.91047 0.33466 0.99075 0.0
H206 H 0.95990 0.26824 0.00347 0.0
H207 H 0.90530 0.23807 0.01585 0.0
H208 H 0.81401 0.38560 0.09185 0.0
H209 H 0.78228 0.39760 0.07578 0.0
H210 H 0.80827 0.40876 0.12684 0.0
H211 H 0.80027 0.43575 0.18042 0.0
H212 H 0.72681 0.39709 0.22390 0.0
H213 H 0.73491 0.37009 0.17043 0.0
H214 H 0.77182 0.44795 0.23885 0.0
H215 H 0.72056 0.41649 0.26157 0.0
C216 C 0.28305 0.61491 0.25933 0.0
C217 C 0.25876 0.60677 0.23571 0.0
C218 C 0.24895 0.61874 0.20200 0.0
C219 C 0.22463 0.61083 0.17816 0.0
C220 C 0.21492 0.62296 0.14454 0.0
C221 C 0.22952 0.64297 0.13491 0.0
C222 C 0.25387 0.65083 0.15866 0.0
C223 C 0.26356 0.63873 0.19223 0.0
C224 C 0.19925 0.64363 0.07839 0.0
C225 C 0.19609 0.65726 0.04455 0.0
C226 C 0.17611 0.67435 0.04591 0.0
C227 C 0.17693 0.69021 0.01507 0.0
C228 C 0.19521 0.68764 0.98085 0.0
C229 C 0.21328 0.66943 0.97798 0.0
C230 C 0.21375 0.65424 0.00992 0.0
C231 C 0.23350 0.63694 0.00854 0.0
C232 C 0.15706 0.67649 0.07951 0.0
C233 C 0.19607 0.70367 0.95026 0.0
C234 C 0.15980 0.70880 0.01852 0.0
C235 C 0.16519 0.74505 0.02808 0.0
C236 C 0.13415 0.74498 0.02152 0.0
C237 C 0.11947 0.76484 0.01948 0.0
C238 C 0.13587 0.78473 0.02400 0.0
C239 C 0.16691 0.78478 0.03087 0.0
C240 C 0.18158 0.76492 0.03290 0.0
C241 C 0.12115 0.80455 0.02157 0.0
C242 C 0.09013 0.80437 0.01453 0.0
C243 C 0.23208 0.66695 0.94436 0.0
C244 C 0.23225 0.65179 0.88224 0.0
C245 C 0.26212 0.65956 0.88006 0.0
C246 C 0.28081 0.65174 0.84953 0.0
C247 C 0.26958 0.63613 0.82134 0.0
C248 C 0.23968 0.62841 0.82351 0.0
C249 C 0.22099 0.63625 0.85398 0.0
C250 C 0.28822 0.62811 0.79099 0.0
C251 C 0.27684 0.61237 0.76317 0.0
O252 O 0.22037 0.65482 0.10186 0.0
O253 O 0.21433 0.65868 0.91317 0.0
O254 O 0.17966 0.72565 0.02885 0.0
H255 H 0.29367 0.62975 0.25178 0.0
H256 H 0.24809 0.59194 0.24317 0.0
H257 H 0.21382 0.59603 0.18538 0.0
H258 H 0.19695 0.61713 0.12681 0.0
H259 H 0.26471 0.66562 0.15136 0.0
H260 H 0.28156 0.64455 0.20987 0.0
H261 H 0.17918 0.64163 0.09400 0.0
H262 H 0.20704 0.62859 0.06934 0.0
H263 H 0.24835 0.63947 0.98463 0.0
H264 H 0.22148 0.62224 0.00414 0.0
H265 H 0.24532 0.63640 0.03592 0.0
H266 H 0.16545 0.66796 0.10423 0.0
H267 H 0.13589 0.67003 0.07191 0.0
H268 H 0.15549 0.69289 0.08718 0.0
H269 H 0.21174 0.69971 0.92843 0.0
H270 H 0.20206 0.71873 0.96329 0.0
H271 H 0.17507 0.70451 0.93664 0.0
H272 H 0.14961 0.71203 0.99069 0.0
H273 H 0.14375 0.70663 0.04108 0.0
H274 H 0.12206 0.73024 0.01802 0.0
H275 H 0.09649 0.76483 0.01454 0.0
H276 H 0.17903 0.79951 0.03435 0.0
H277 H 0.20458 0.76492 0.03783 0.0
H278 H 0.13318 0.81933 0.02493 0.0
H279 H 0.07816 0.78957 0.01119 0.0
H280 H 0.24215 0.68183 0.93591 0.0
H281 H 0.24837 0.65587 0.95164 0.0
H282 H 0.27042 0.67099 0.90117 0.0
H283 H 0.30296 0.65744 0.84787 0.0
H284 H 0.23143 0.61685 0.80261 0.0
H285 H 0.19891 0.63047 0.85580 0.0
H286 H 0.31038 0.63377 0.78915 0.0
H287 H 0.25467 0.60675 0.76512 0.0
C288 C 0.50077 0.71029 0.76017 0.0
C289 C 0.52482 0.70307 0.78372 0.0
C290 C 0.53504 0.71544 0.81749 0.0
C291 C 0.55914 0.70844 0.84126 0.0
C292 C 0.56927 0.72096 0.87494 0.0
C293 C 0.55531 0.74044 0.88471 0.0
C294 C 0.53118 0.74739 0.86103 0.0
C295 C 0.52107 0.73489 0.82740 0.0
C296 C 0.58565 0.74227 0.94120 0.0
C297 C 0.58927 0.75604 0.97513 0.0
C298 C 0.60982 0.77389 0.97384 0.0
C299 C 0.60952 0.78974 0.00478 0.0
C300 C 0.59117 0.78651 0.03900 0.0
C301 C 0.57250 0.76762 0.04179 0.0
C302 C 0.57152 0.75239 0.00976 0.0
C303 C 0.55121 0.73434 0.01105 0.0
C304 C 0.62893 0.77671 0.94024 0.0
C305 C 0.59085 0.80254 0.06970 0.0
C306 C 0.62726 0.80899 0.00143 0.0
C307 C 0.62303 0.84505 0.99210 0.0
C308 C 0.65410 0.84614 0.99862 0.0
C309 C 0.66942 0.86656 0.00010 0.0
C310 C 0.65365 0.88585 0.99639 0.0
C311 C 0.62259 0.88474 0.98955 0.0
C312 C 0.60727 0.86432 0.98741 0.0
C313 C 0.66902 0.90623 0.99892 0.0
C314 C 0.70006 0.90721 0.00593 0.0
C315 C 0.55363 0.76445 0.07541 0.0
C316 C 0.55301 0.74932 0.13744 0.0
C317 C 0.52338 0.75599 0.13970 0.0
C318 C 0.50444 0.74748 0.17020 0.0
C319 C 0.51519 0.73230 0.19828 0.0
C320 C 0.54486 0.72569 0.19604 0.0
C321 C 0.56379 0.73421 0.16559 0.0
C322 C 0.49630 0.72360 0.22860 0.0
C323 C 0.50720 0.70829 0.25631 0.0
O324 O 0.56486 0.75266 0.91782 0.0
O325 O 0.57115 0.75686 0.10653 0.0
O326 O 0.60793 0.82510 0.99122 0.0
H327 H 0.49062 0.72475 0.76783 0.0
H328 H 0.53502 0.68862 0.77616 0.0
H329 H 0.56947 0.69403 0.83394 0.0
H330 H 0.58706 0.71581 0.89262 0.0
H331 H 0.52082 0.76178 0.86843 0.0
H332 H 0.50324 0.74004 0.80981 0.0
H333 H 0.60566 0.74101 0.92556 0.0
H334 H 0.57737 0.72693 0.95017 0.0
H335 H 0.53644 0.73633 0.03499 0.0
H336 H 0.56276 0.72008 0.01535 0.0
H337 H 0.53934 0.73334 0.98368 0.0
H338 H 0.62024 0.76785 0.91548 0.0
H339 H 0.64990 0.77105 0.94778 0.0
H340 H 0.63102 0.79318 0.93267 0.0
H341 H 0.57506 0.79801 0.09152 0.0
H342 H 0.58533 0.81737 0.05676 0.0
H343 H 0.61189 0.80417 0.08330 0.0
H344 H 0.63758 0.81261 0.02927 0.0
H345 H 0.64324 0.80740 0.97884 0.0
H346 H 0.66572 0.83184 0.00202 0.0
H347 H 0.69242 0.86741 0.00569 0.0
H348 H 0.61094 0.89902 0.98616 0.0
H349 H 0.58425 0.86345 0.98250 0.0
H350 H 0.65746 0.92057 0.99566 0.0
H351 H 0.71156 0.89285 0.00916 0.0
H352 H 0.54404 0.77897 0.08396 0.0
H353 H 0.53697 0.75276 0.06808 0.0
H354 H 0.51543 0.76710 0.11866 0.0
H355 H 0.48247 0.75236 0.17192 0.0
H356 H 0.55276 0.71444 0.21686 0.0
H357 H 0.58570 0.72925 0.16372 0.0
H358 H 0.47431 0.72843 0.23050 0.0
H359 H 0.52919 0.70349 0.25431 0.0
C360 C 0.13290 0.06811 0.03363 0.0
C361 C 0.15616 0.06871 0.00584 0.0
C362 C 0.18352 0.07111 0.02571 0.0
C363 C 0.25655 0.07621 0.98818 0.0
C364 C 0.23415 0.07364 0.01589 0.0
C365 C 0.20655 0.07263 0.99802 0.0
N366 N 0.10698 0.06654 0.01514 0.0
H367 H 0.09850 0.07787 0.00988 0.0
N368 N 0.28328 0.07743 0.00542 0.0
H369 H 0.29272 0.06622 0.00720 0.0
H370 H 0.13480 0.05679 0.05004 0.0
H371 H 0.13389 0.08015 0.04866 0.0
H372 H 0.15561 0.05647 0.99141 0.0
H373 H 0.15398 0.07977 0.98889 0.0
H374 H 0.18376 0.08303 0.04104 0.0
H375 H 0.18603 0.05975 0.04187 0.0
H376 H 0.25568 0.06504 0.97095 0.0
H377 H 0.25385 0.08828 0.97399 0.0
H378 H 0.23519 0.08471 0.03327 0.0
H379 H 0.23673 0.06146 0.02982 0.0
H380 H 0.20524 0.06115 0.98157 0.0
H381 H 0.20441 0.08446 0.98301 0.0
C382 C 0.95276 0.10889 0.03413 0.0
C383 C 0.95382 0.12612 0.00667 0.0
C384 C 0.95344 0.14598 0.02697 0.0
C385 C 0.95301 0.19974 0.99054 0.0
C386 C 0.95473 0.18309 0.01789 0.0
C387 C 0.95321 0.16307 0.99990 0.0
N388 N 0.95217 0.09008 0.01525 0.0
H389 H 0.93580 0.08418 0.01007 0.0
N390 N 0.95415 0.21914 0.00817 0.0
H391 H 0.97039 0.22578 0.00990 0.0
H392 H 0.96862 0.10988 0.05037 0.0
H393 H 0.93660 0.10974 0.04938 0.0
H394 H 0.97030 0.12557 0.99203 0.0
H395 H 0.93827 0.12491 0.98989 0.0
H396 H 0.93737 0.14629 0.04249 0.0
H397 H 0.96941 0.14743 0.04296 0.0
H398 H 0.96796 0.19901 0.97312 0.0
H399 H 0.93609 0.19815 0.97652 0.0
H400 H 0.93992 0.18394 0.03547 0.0
H401 H 0.97180 0.18459 0.03165 0.0
H402 H 0.96856 0.16200 0.98297 0.0
H403 H 0.93665 0.16189 0.98479 0.0
C404 C 0.04217 0.92771 0.98751 0.0
C405 C 0.05015 0.91211 0.01583 0.0
C406 C 0.05771 0.89296 0.99654 0.0
C407 C 0.07898 0.84258 0.03566 0.0
C408 C 0.07386 0.85837 0.00749 0.0
C409 C 0.06442 0.87715 0.02473 0.0
N410 N 0.03410 0.94560 0.00542 0.0
H411 H 0.01627 0.94689 0.01023 0.0
N412 N 0.08781 0.82430 0.01902 0.0
H413 H 0.10582 0.82233 0.01771 0.0
H414 H 0.05752 0.93076 0.97139 0.0
H415 H 0.02720 0.92238 0.97223 0.0
H416 H 0.06553 0.91722 0.03052 0.0
H417 H 0.03501 0.90936 0.03247 0.0
H418 H 0.04262 0.88817 0.98096 0.0
H419 H 0.07335 0.89561 0.98070 0.0
H420 H 0.09286 0.84750 0.05312 0.0
H421 H 0.06238 0.83978 0.04952 0.0
H422 H 0.06017 0.85337 0.98988 0.0
H423 H 0.09057 0.86130 0.99389 0.0
H424 H 0.07854 0.88248 0.04140 0.0
H425 H 0.04833 0.87407 0.03942 0.0
C426 C 0.87822 0.95657 0.03090 0.0
C427 C 0.85442 0.95517 0.00351 0.0
C428 C 0.82818 0.94898 0.02320 0.0
C429 C 0.75539 0.93870 0.98598 0.0
C430 C 0.77797 0.94195 0.01371 0.0
C431 C 0.80478 0.94668 0.99572 0.0
N432 N 0.90324 0.96173 0.01244 0.0
H433 H 0.91362 0.95176 0.00474 0.0
N434 N 0.72948 0.93388 0.00328 0.0
H435 H 0.71806 0.94381 0.00752 0.0
H436 H 0.87469 0.96657 0.04958 0.0
H437 H 0.87986 0.94385 0.04338 0.0
H438 H 0.85233 0.96800 0.99169 0.0
H439 H 0.85818 0.94547 0.98436 0.0
H440 H 0.83054 0.93644 0.03598 0.0
H441 H 0.82402 0.95898 0.04164 0.0
H442 H 0.75373 0.95067 0.97115 0.0
H443 H 0.75992 0.92792 0.96935 0.0
H444 H 0.77945 0.93005 0.02872 0.0
H445 H 0.77353 0.95287 0.03011 0.0
H446 H 0.80352 0.95897 0.98172 0.0
H447 H 0.80868 0.93613 0.97833 0.0
C448 C 0.53036 0.41386 0.61042 0.0
C449 C 0.50721 0.40506 0.63480 0.0
C450 C 0.48025 0.41595 0.63814 0.0
C451 C 0.47641 0.43563 0.61711 0.0
C452 C 0.49954 0.44443 0.59274 0.0
C453 C 0.52651 0.43355 0.58939 0.0
C454 C 0.51101 0.38538 0.65585 0.0
C455 C 0.51475 0.36569 0.67693 0.0
C456 C 0.51843 0.34601 0.69803 0.0
C457 C 0.52208 0.32633 0.71916 0.0
H458 H 0.55032 0.40580 0.60794 0.0
H459 H 0.46312 0.40944 0.65620 0.0
H460 H 0.45643 0.44369 0.61959 0.0
H461 H 0.54364 0.44006 0.57135 0.0
C462 C 0.59237 0.45700 0.62943 0.0
C463 C 0.61485 0.47238 0.64144 0.0
C464 C 0.61232 0.49452 0.63129 0.0
C465 C 0.58733 0.50130 0.60915 0.0
C466 C 0.56485 0.48593 0.59714 0.0
C467 C 0.56738 0.46378 0.60729 0.0
C468 C 0.63986 0.46563 0.66358 0.0
C469 C 0.66489 0.45893 0.68573 0.0
C470 C 0.68994 0.45227 0.70790 0.0
C471 C 0.71501 0.44563 0.73006 0.0
H472 H 0.59424 0.44060 0.63694 0.0
H473 H 0.62896 0.50591 0.64017 0.0
H474 H 0.58546 0.51770 0.60166 0.0
H475 H 0.55074 0.45240 0.59839 0.0
C476 C 0.59153 0.47886 0.36140 0.0
C477 C 0.61791 0.47399 0.38246 0.0
C478 C 0.61944 0.47630 0.42505 0.0
C479 C 0.59461 0.48346 0.44660 0.0
C480 C 0.56823 0.48833 0.42556 0.0
C481 C 0.56669 0.48603 0.38296 0.0
C482 C 0.64277 0.46682 0.36096 0.0
C483 C 0.66767 0.45965 0.33953 0.0
C484 C 0.69259 0.45247 0.31818 0.0
C485 C 0.71754 0.44528 0.29686 0.0
H486 H 0.59039 0.47715 0.32987 0.0
H487 H 0.63898 0.47270 0.44064 0.0
H488 H 0.59575 0.48516 0.47814 0.0
H489 H 0.54716 0.48963 0.36738 0.0
C490 C 0.40332 0.57042 0.42850 0.0
C491 C 0.39581 0.56237 0.38947 0.0
C492 C 0.41108 0.54475 0.37319 0.0
C493 C 0.43387 0.53517 0.39592 0.0
C494 C 0.44138 0.54322 0.43495 0.0
C495 C 0.42611 0.56085 0.45124 0.0
C496 C 0.37302 0.57192 0.36669 0.0
C497 C 0.35025 0.58144 0.34384 0.0
C498 C 0.32748 0.59093 0.32094 0.0
C499 C 0.30472 0.60041 0.29799 0.0
H500 H 0.39201 0.58347 0.44056 0.0
H501 H 0.40553 0.53878 0.34428 0.0
H502 H 0.44516 0.52212 0.38386 0.0
H503 H 0.43167 0.56681 0.48013 0.0
C504 C 0.39587 0.54058 0.62381 0.0
C505 C 0.39752 0.56294 0.63376 0.0
C506 C 0.42201 0.57612 0.62084 0.0
C507 C 0.44485 0.56696 0.59797 0.0
C508 C 0.44321 0.54461 0.58802 0.0
C509 C 0.41871 0.53142 0.60094 0.0
C510 C 0.37469 0.57213 0.65662 0.0
C511 C 0.35190 0.58136 0.67947 0.0
C512 C 0.32913 0.59063 0.70232 0.0
C513 C 0.30638 0.59993 0.72517 0.0
H514 H 0.37774 0.53082 0.63337 0.0
H515 H 0.42324 0.59267 0.62821 0.0
H516 H 0.46297 0.57673 0.58841 0.0
H517 H 0.41750 0.51488 0.59358 0.0
C518 C 0.52946 0.60427 0.40833 0.0
C519 C 0.50810 0.60606 0.37702 0.0
C520 C 0.48960 0.58788 0.36620 0.0
C521 C 0.49244 0.56792 0.38669 0.0
C522 C 0.51379 0.56613 0.41799 0.0
C523 C 0.53230 0.58430 0.42882 0.0
C524 C 0.50522 0.62600 0.35650 0.0
C525 C 0.50229 0.64593 0.33593 0.0
C526 C 0.49932 0.66585 0.31533 0.0
C527 C 0.49632 0.68575 0.29469 0.0
H528 H 0.54316 0.61772 0.41635 0.0
H529 H 0.47379 0.58920 0.34301 0.0
H530 H 0.47873 0.55448 0.37867 0.0
H531 H 0.54811 0.58298 0.45200 0.0
C532 C 0.52199 0.41048 0.42069 0.0
C533 C 0.50397 0.40450 0.38692 0.0
C534 C 0.48134 0.41822 0.37383 0.0
C535 C 0.47672 0.43793 0.39450 0.0
C536 C 0.49473 0.44391 0.42826 0.0
C537 C 0.51736 0.43019 0.44136 0.0
C538 C 0.50856 0.38480 0.36621 0.0
C539 C 0.51311 0.36511 0.34545 0.0
C540 C 0.51761 0.34544 0.32463 0.0
C541 C 0.52209 0.32576 0.30378 0.0
H542 H 0.53875 0.40032 0.43038 0.0
H543 H 0.46799 0.41380 0.34884 0.0
H544 H 0.45996 0.44808 0.38479 0.0
H545 H 0.53070 0.43462 0.46636 0.0
C546 C 0.53332 0.59855 0.62429 0.0
C547 C 0.50535 0.60508 0.63804 0.0
C548 C 0.47973 0.59153 0.63141 0.0
C549 C 0.48207 0.57146 0.61105 0.0
C550 C 0.51003 0.56493 0.59730 0.0
C551 C 0.53565 0.57848 0.60392 0.0
C552 C 0.50297 0.62515 0.65842 0.0
C553 C 0.50052 0.64521 0.67881 0.0
C554 C 0.49802 0.66526 0.69921 0.0
C555 C 0.49548 0.68530 0.71962 0.0
H556 H 0.55229 0.60858 0.62919 0.0
H557 H 0.45902 0.59636 0.64158 0.0
H558 H 0.46309 0.56143 0.60616 0.0
H559 H 0.55636 0.57365 0.59374 0.0
