data_{}
_symmetry_space_group_name_H-M    P1
_symmetry_Int_Tables_number       1
_symmetry_cell_setting            triclinic
loop_
_symmetry_equiv_pos_as_xyz
'x, y, z'
_cell_length_a     72.265
_cell_length_b     72.594
_cell_length_c     35.777
_cell_angle_alpha  90.160
_cell_angle_beta   90.090
_cell_angle_gamma  89.508
loop_
_atom_site_label
_atom_site_type_symbol
_atom_site_fract_x
_atom_site_fract_y
_atom_site_fract_z
_atom_type_partial_charge
H0 H 0.01731 0.50545 0.12589 0.0
H1 H 0.98548 0.50437 0.12581 0.0
C2 C 0.99166 0.50403 0.03591 0.0
C3 C 0.99183 0.50453 0.10318 0.0
C4 C 0.98195 0.50394 0.06975 0.0
C5 C 0.98181 0.50085 0.00010 0.0
C6 C 0.99162 0.50413 0.96441 0.0
C7 C 0.98178 0.50406 0.93075 0.0
C8 C 0.02051 0.50672 0.93056 0.0
C9 C 0.01098 0.50587 0.96444 0.0
C10 C 0.02128 0.50788 0.00010 0.0
C11 C 0.01109 0.50553 0.03597 0.0
C12 C 0.01065 0.50655 0.89727 0.0
C13 C 0.99150 0.50535 0.89731 0.0
H14 H 0.98509 0.50541 0.87473 0.0
H15 H 0.01693 0.50724 0.87465 0.0
O16 O 0.96616 0.49454 0.99990 0.0
O17 O 0.03744 0.51230 0.00010 0.0
C18 C 0.02071 0.50600 0.06984 0.0
C19 C 0.01094 0.50534 0.10330 0.0
H20 H 0.50449 0.98471 0.12579 0.0
H21 H 0.50469 0.01643 0.12591 0.0
C22 C 0.50409 0.01024 0.03597 0.0
C23 C 0.50459 0.01009 0.10324 0.0
C24 C 0.50439 0.01992 0.06987 0.0
C25 C 0.50130 0.02020 0.00010 0.0
C26 C 0.50420 0.01023 0.96448 0.0
C27 C 0.50452 0.01999 0.93087 0.0
C28 C 0.50564 0.98133 0.93043 0.0
C29 C 0.50516 0.99088 0.96438 0.0
C30 C 0.50677 0.98055 0.00010 0.0
C31 C 0.50482 0.99084 0.03590 0.0
C32 C 0.50585 0.99113 0.89721 0.0
C33 C 0.50542 0.01023 0.89737 0.0
H34 H 0.50574 0.01659 0.87483 0.0
H35 H 0.50629 0.98482 0.87455 0.0
O36 O 0.49560 0.03611 0.00010 0.0
O37 O 0.51055 0.96422 0.00010 0.0
C38 C 0.50491 0.98127 0.06971 0.0
C39 C 0.50464 0.99104 0.10324 0.0
Mg40 Mg 0.50124 0.50047 0.49998 0.0
C41 C 0.50693 0.45706 0.48895 0.0
C42 C 0.49554 0.54388 0.51100 0.0
O43 O 0.52958 0.50030 0.48888 0.0
O44 O 0.54515 0.47783 0.51811 0.0
O45 O 0.49901 0.47228 0.48821 0.0
O46 O 0.52394 0.45431 0.49666 0.0
O47 O 0.47289 0.50064 0.51107 0.0
O48 O 0.45733 0.52311 0.48185 0.0
O49 O 0.50347 0.52866 0.51174 0.0
C50 C 0.54302 0.49481 0.50715 0.0
C51 C 0.45945 0.50612 0.49281 0.0
O52 O 0.47853 0.54663 0.50329 0.0
C53 C 0.11137 0.50075 0.25239 0.0
C54 C 0.11517 0.48334 0.27578 0.0
C55 C 0.12828 0.48433 0.30967 0.0
C56 C 0.13227 0.46702 0.33327 0.0
C57 C 0.14545 0.46815 0.36708 0.0
C58 C 0.15462 0.48657 0.37713 0.0
C59 C 0.15057 0.50387 0.35362 0.0
C60 C 0.13742 0.50274 0.31987 0.0
C61 C 0.16755 0.47055 0.43360 0.0
C62 C 0.17917 0.47602 0.46772 0.0
C63 C 0.20036 0.47420 0.46631 0.0
C64 C 0.21204 0.48299 0.49748 0.0
C65 C 0.20255 0.49152 0.53205 0.0
C66 C 0.18130 0.49171 0.53494 0.0
C67 C 0.16960 0.48398 0.50269 0.0
C68 C 0.14835 0.48555 0.50410 0.0
C69 C 0.20984 0.46503 0.43236 0.0
C70 C 0.21434 0.50042 0.56298 0.0
C71 C 0.23319 0.48351 0.49403 0.0
C72 C 0.25848 0.50550 0.48488 0.0
C73 C 0.27120 0.48868 0.49112 0.0
C74 C 0.29230 0.49119 0.49322 0.0
C75 C 0.30064 0.51052 0.48908 0.0
C76 C 0.28791 0.52733 0.48252 0.0
C77 C 0.26681 0.52481 0.48043 0.0
C78 C 0.32174 0.51299 0.49157 0.0
C79 C 0.33436 0.49612 0.49830 0.0
C80 C 0.17166 0.50057 0.56890 0.0
C81 C 0.16006 0.49269 0.63117 0.0
C82 C 0.15367 0.51293 0.63377 0.0
C83 C 0.14003 0.51892 0.66458 0.0
C84 C 0.13279 0.50463 0.69261 0.0
C85 C 0.13924 0.48441 0.69001 0.0
C86 C 0.15289 0.47843 0.65926 0.0
C87 C 0.11902 0.51049 0.72322 0.0
C88 C 0.11175 0.49606 0.75088 0.0
O89 O 0.16736 0.48786 0.41037 0.0
O90 O 0.17268 0.48662 0.59996 0.0
O91 O 0.23781 0.50311 0.48405 0.0
H92 H 0.11825 0.51429 0.26026 0.0
H93 H 0.10832 0.46976 0.26800 0.0
H94 H 0.12549 0.45339 0.32573 0.0
H95 H 0.14841 0.45537 0.38463 0.0
H96 H 0.15733 0.51751 0.36124 0.0
H97 H 0.13444 0.51554 0.30240 0.0
H98 H 0.17430 0.45865 0.41767 0.0
H99 H 0.15292 0.46685 0.44262 0.0
H100 H 0.14414 0.49491 0.52832 0.0
H101 H 0.14213 0.47132 0.50823 0.0
H102 H 0.14308 0.49166 0.47672 0.0
H103 H 0.19993 0.46508 0.40752 0.0
H104 H 0.21364 0.45019 0.43969 0.0
H105 H 0.22293 0.47281 0.42482 0.0
H106 H 0.20488 0.50681 0.58504 0.0
H107 H 0.22330 0.51158 0.55011 0.0
H108 H 0.22361 0.48951 0.57643 0.0
H109 H 0.23982 0.47970 0.52192 0.0
H110 H 0.23816 0.47369 0.47116 0.0
H111 H 0.26499 0.47438 0.49435 0.0
H112 H 0.30175 0.47876 0.49793 0.0
H113 H 0.29410 0.54163 0.47932 0.0
H114 H 0.25734 0.53725 0.47573 0.0
H115 H 0.32800 0.52727 0.48849 0.0
H116 H 0.32806 0.48187 0.50136 0.0
H117 H 0.17880 0.51384 0.57767 0.0
H118 H 0.15656 0.50355 0.56165 0.0
H119 H 0.15893 0.52342 0.61277 0.0
H120 H 0.13523 0.53389 0.66655 0.0
H121 H 0.13385 0.47386 0.71080 0.0
H122 H 0.15759 0.46344 0.65713 0.0
H123 H 0.11419 0.52545 0.72538 0.0
H124 H 0.11661 0.48112 0.74862 0.0
C125 C 0.51371 0.10912 0.25176 0.0
C126 C 0.53114 0.11290 0.27530 0.0
C127 C 0.52992 0.12596 0.30919 0.0
C128 C 0.54724 0.12993 0.33296 0.0
C129 C 0.54589 0.14307 0.36677 0.0
C130 C 0.52724 0.15220 0.37667 0.0
C131 C 0.50992 0.14818 0.35300 0.0
C132 C 0.51127 0.13507 0.31924 0.0
C133 C 0.54311 0.16509 0.43329 0.0
C134 C 0.53743 0.17667 0.46737 0.0
C135 C 0.53890 0.19776 0.46600 0.0
C136 C 0.52988 0.20940 0.49711 0.0
C137 C 0.52147 0.19998 0.53159 0.0
C138 C 0.52163 0.17882 0.53445 0.0
C139 C 0.52959 0.16716 0.50226 0.0
C140 C 0.52836 0.14601 0.50364 0.0
C141 C 0.54796 0.20718 0.43214 0.0
C142 C 0.51233 0.21173 0.56245 0.0
C143 C 0.52901 0.23046 0.49367 0.0
C144 C 0.50650 0.25565 0.48435 0.0
C145 C 0.52319 0.26830 0.49076 0.0
C146 C 0.52032 0.28931 0.49286 0.0
C147 C 0.50076 0.29762 0.48856 0.0
C148 C 0.48409 0.28496 0.48184 0.0
C149 C 0.48697 0.26395 0.47974 0.0
C150 C 0.49793 0.31862 0.49105 0.0
C151 C 0.51467 0.33118 0.49794 0.0
C152 C 0.51289 0.16924 0.56833 0.0
C153 C 0.52100 0.15771 0.63065 0.0
C154 C 0.50077 0.15136 0.63307 0.0
C155 C 0.49498 0.13780 0.66381 0.0
C156 C 0.50945 0.13059 0.69196 0.0
C157 C 0.52966 0.13700 0.68955 0.0
C158 C 0.53544 0.15058 0.65887 0.0
C159 C 0.50379 0.11690 0.72251 0.0
C160 C 0.51841 0.10966 0.75029 0.0
O161 O 0.52573 0.16490 0.40991 0.0
O162 O 0.52688 0.17026 0.59951 0.0
O163 O 0.50924 0.23507 0.48353 0.0
H164 H 0.49998 0.11598 0.25952 0.0
H165 H 0.54488 0.10607 0.26763 0.0
H166 H 0.56105 0.12317 0.32553 0.0
H167 H 0.55868 0.14601 0.38444 0.0
H168 H 0.49611 0.15492 0.36050 0.0
H169 H 0.49847 0.13211 0.30166 0.0
H170 H 0.55495 0.17179 0.41747 0.0
H171 H 0.54707 0.15053 0.44233 0.0
H172 H 0.51903 0.14183 0.52777 0.0
H173 H 0.54276 0.13981 0.50789 0.0
H174 H 0.52231 0.14076 0.47619 0.0
H175 H 0.54807 0.19730 0.40730 0.0
H176 H 0.56281 0.21096 0.43961 0.0
H177 H 0.53992 0.22021 0.42455 0.0
H178 H 0.50607 0.20232 0.58445 0.0
H179 H 0.50097 0.22065 0.54949 0.0
H180 H 0.52314 0.22096 0.57602 0.0
H181 H 0.53273 0.23707 0.52161 0.0
H182 H 0.53879 0.23540 0.47090 0.0
H183 H 0.53765 0.26210 0.49410 0.0
H184 H 0.53265 0.29871 0.49769 0.0
H185 H 0.46962 0.29113 0.47851 0.0
H186 H 0.47463 0.25453 0.47493 0.0
H187 H 0.48349 0.32487 0.48785 0.0
H188 H 0.52909 0.32490 0.50112 0.0
H189 H 0.49944 0.17636 0.57699 0.0
H190 H 0.51014 0.15421 0.56103 0.0
H191 H 0.49014 0.15660 0.61199 0.0
H192 H 0.48002 0.13303 0.66565 0.0
H193 H 0.54034 0.13164 0.71042 0.0
H194 H 0.55042 0.15525 0.65687 0.0
H195 H 0.48884 0.11210 0.72453 0.0
H196 H 0.53334 0.11449 0.74816 0.0
C197 C 0.89072 0.50828 0.74760 0.0
C198 C 0.88722 0.49087 0.72402 0.0
C199 C 0.87409 0.49187 0.69014 0.0
C200 C 0.87040 0.47455 0.66634 0.0
C201 C 0.85720 0.47569 0.63254 0.0
C202 C 0.84772 0.49411 0.62270 0.0
C203 C 0.85146 0.51141 0.64640 0.0
C204 C 0.86464 0.51028 0.68015 0.0
C205 C 0.83506 0.47809 0.56605 0.0
C206 C 0.82335 0.48355 0.53199 0.0
C207 C 0.80219 0.48174 0.53338 0.0
C208 C 0.79036 0.49053 0.50230 0.0
C209 C 0.79970 0.49906 0.46784 0.0
C210 C 0.82095 0.49925 0.46495 0.0
C211 C 0.83278 0.49152 0.49711 0.0
C212 C 0.85401 0.49309 0.49572 0.0
C213 C 0.79287 0.47256 0.56723 0.0
C214 C 0.78776 0.50796 0.43701 0.0
C215 C 0.76920 0.49105 0.50576 0.0
C216 C 0.74353 0.51303 0.51516 0.0
C217 C 0.73110 0.49621 0.50872 0.0
C218 C 0.70996 0.49873 0.50665 0.0
C219 C 0.70128 0.51806 0.51101 0.0
C220 C 0.71372 0.53487 0.51776 0.0
C221 C 0.73487 0.53235 0.51983 0.0
C222 C 0.68014 0.52053 0.50854 0.0
C223 C 0.66781 0.50366 0.50162 0.0
C224 C 0.83044 0.50811 0.43109 0.0
C225 C 0.84217 0.50023 0.36873 0.0
C226 C 0.84822 0.52046 0.36636 0.0
C227 C 0.86175 0.52645 0.33562 0.0
C228 C 0.86924 0.51217 0.30743 0.0
C229 C 0.86314 0.49194 0.30979 0.0
C230 C 0.84959 0.48597 0.34047 0.0
C231 C 0.88291 0.51803 0.27688 0.0
C232 C 0.89043 0.50360 0.24906 0.0
O233 O 0.83496 0.49540 0.58947 0.0
O234 O 0.82966 0.49416 0.39987 0.0
O235 O 0.76424 0.51065 0.51596 0.0
H236 H 0.88361 0.52183 0.73988 0.0
H237 H 0.89430 0.47730 0.73165 0.0
H238 H 0.87741 0.46092 0.67372 0.0
H239 H 0.85446 0.46291 0.61485 0.0
H240 H 0.84447 0.52505 0.63894 0.0
H241 H 0.86739 0.52307 0.69776 0.0
H242 H 0.82852 0.46619 0.58184 0.0
H243 H 0.84975 0.47439 0.55699 0.0
H244 H 0.85805 0.50245 0.47160 0.0
H245 H 0.86047 0.47886 0.49143 0.0
H246 H 0.85917 0.49920 0.52317 0.0
H247 H 0.80278 0.47262 0.59206 0.0
H248 H 0.78932 0.45772 0.55973 0.0
H249 H 0.77964 0.48035 0.57485 0.0
H250 H 0.79711 0.51435 0.41501 0.0
H251 H 0.77860 0.51912 0.45000 0.0
H252 H 0.77867 0.49705 0.42342 0.0
H253 H 0.76263 0.48723 0.47782 0.0
H254 H 0.76439 0.48123 0.52852 0.0
H255 H 0.73756 0.48192 0.50534 0.0
H256 H 0.70072 0.48630 0.50180 0.0
H257 H 0.70728 0.54917 0.52112 0.0
H258 H 0.74412 0.54478 0.52466 0.0
H259 H 0.67364 0.53481 0.51178 0.0
H260 H 0.67436 0.48940 0.49841 0.0
H261 H 0.82307 0.52138 0.42247 0.0
H262 H 0.84549 0.51109 0.43838 0.0
H263 H 0.84277 0.53096 0.38747 0.0
H264 H 0.86629 0.54142 0.33381 0.0
H265 H 0.86871 0.48140 0.28889 0.0
H266 H 0.84514 0.47098 0.34244 0.0
H267 H 0.88748 0.53299 0.27489 0.0
H268 H 0.88582 0.48865 0.25116 0.0
C269 C 0.49143 0.89042 0.74824 0.0
C270 C 0.50886 0.88634 0.72480 0.0
C271 C 0.50764 0.87330 0.69090 0.0
C272 C 0.52497 0.86903 0.66724 0.0
C273 C 0.52361 0.85592 0.63342 0.0
C274 C 0.50496 0.84710 0.62341 0.0
C275 C 0.48764 0.85142 0.64697 0.0
C276 C 0.48899 0.86450 0.68073 0.0
C277 C 0.52083 0.83395 0.56688 0.0
C278 C 0.51515 0.82247 0.53276 0.0
C279 C 0.51662 0.80135 0.53414 0.0
C280 C 0.50760 0.78987 0.50297 0.0
C281 C 0.49919 0.79943 0.46844 0.0
C282 C 0.49935 0.82059 0.46558 0.0
C283 C 0.50731 0.83211 0.49783 0.0
C284 C 0.50608 0.85329 0.49644 0.0
C285 C 0.52569 0.79178 0.56805 0.0
C286 C 0.49005 0.78784 0.43752 0.0
C287 C 0.50673 0.76882 0.50640 0.0
C288 C 0.48423 0.74402 0.51557 0.0
C289 C 0.50091 0.73108 0.50927 0.0
C290 C 0.49804 0.71012 0.50715 0.0
C291 C 0.47848 0.70214 0.51133 0.0
C292 C 0.46181 0.71509 0.51795 0.0
C293 C 0.46469 0.73605 0.52007 0.0
C294 C 0.47566 0.68119 0.50882 0.0
C295 C 0.49239 0.66834 0.50203 0.0
C296 C 0.49061 0.83031 0.43165 0.0
C297 C 0.49872 0.84171 0.36938 0.0
C298 C 0.47849 0.84841 0.36683 0.0
C299 C 0.47270 0.86207 0.33606 0.0
C300 C 0.48717 0.86903 0.30801 0.0
C301 C 0.50738 0.86228 0.31054 0.0
C302 C 0.51316 0.84860 0.34125 0.0
C303 C 0.48151 0.88282 0.27742 0.0
C304 C 0.49613 0.88980 0.24973 0.0
O305 O 0.50345 0.83444 0.59015 0.0
O306 O 0.50461 0.82906 0.40056 0.0
O307 O 0.48696 0.76455 0.51642 0.0
H308 H 0.47771 0.88379 0.74039 0.0
H309 H 0.52261 0.89293 0.73256 0.0
H310 H 0.53877 0.87555 0.67476 0.0
H311 H 0.53640 0.85276 0.61583 0.0
H312 H 0.47383 0.84492 0.63938 0.0
H313 H 0.47619 0.86768 0.69824 0.0
H314 H 0.53267 0.82704 0.58277 0.0
H315 H 0.52479 0.84844 0.55787 0.0
H316 H 0.49675 0.85762 0.47225 0.0
H317 H 0.52048 0.85923 0.49228 0.0
H318 H 0.50003 0.85864 0.52385 0.0
H319 H 0.52580 0.80165 0.59290 0.0
H320 H 0.54053 0.78774 0.56068 0.0
H321 H 0.51765 0.77888 0.57560 0.0
H322 H 0.48379 0.79735 0.41548 0.0
H323 H 0.47870 0.77911 0.45041 0.0
H324 H 0.50086 0.77843 0.42402 0.0
H325 H 0.51045 0.76215 0.47849 0.0
H326 H 0.51651 0.76372 0.52924 0.0
H327 H 0.51537 0.73703 0.50602 0.0
H328 H 0.51037 0.70051 0.50239 0.0
H329 H 0.44734 0.70916 0.52118 0.0
H330 H 0.45235 0.74568 0.52481 0.0
H331 H 0.46121 0.67519 0.51193 0.0
H332 H 0.50682 0.67438 0.49895 0.0
H333 H 0.47716 0.82343 0.42291 0.0
H334 H 0.48786 0.84540 0.43893 0.0
H335 H 0.46786 0.84335 0.38785 0.0
H336 H 0.45774 0.86709 0.33413 0.0
H337 H 0.51807 0.86746 0.28973 0.0
H338 H 0.52814 0.84367 0.34334 0.0
H339 H 0.46657 0.88787 0.27531 0.0
H340 H 0.51106 0.88472 0.25196 0.0
C341 C 0.40115 0.49878 0.50013 0.0
C342 C 0.39101 0.48023 0.50148 0.0
C343 C 0.36971 0.47983 0.50150 0.0
C344 C 0.44376 0.49962 0.50005 0.0
C345 C 0.36868 0.51654 0.49881 0.0
C346 C 0.38999 0.51694 0.49880 0.0
C347 C 0.42245 0.49919 0.50009 0.0
C348 C 0.35854 0.49799 0.50015 0.0
H349 H 0.39927 0.46679 0.50248 0.0
H350 H 0.36219 0.46610 0.50251 0.0
H351 H 0.36042 0.52998 0.49782 0.0
H352 H 0.39750 0.53067 0.49780 0.0
C353 C 0.50779 0.39807 0.49984 0.0
C354 C 0.49041 0.38594 0.49946 0.0
C355 C 0.49242 0.36480 0.49943 0.0
C356 C 0.50382 0.44035 0.49993 0.0
C357 C 0.52917 0.36793 0.50016 0.0
C358 C 0.52716 0.38907 0.50018 0.0
C359 C 0.50579 0.41921 0.49988 0.0
C360 C 0.51180 0.35580 0.49979 0.0
H361 H 0.47607 0.39260 0.49918 0.0
H362 H 0.47956 0.35581 0.49914 0.0
H363 H 0.54351 0.36127 0.50042 0.0
H364 H 0.54002 0.39806 0.50045 0.0
C365 C 0.60116 0.50322 0.49983 0.0
C366 C 0.61272 0.48532 0.50123 0.0
C367 C 0.63401 0.48620 0.50122 0.0
C368 C 0.55859 0.50150 0.49990 0.0
C369 C 0.63217 0.52288 0.49837 0.0
C370 C 0.61088 0.52200 0.49838 0.0
C371 C 0.57987 0.50235 0.49986 0.0
C372 C 0.64373 0.50498 0.49979 0.0
H373 H 0.60553 0.47141 0.50229 0.0
H374 H 0.64257 0.47294 0.50225 0.0
H375 H 0.63937 0.53678 0.49731 0.0
H376 H 0.60232 0.53525 0.49733 0.0
C377 C 0.49503 0.60217 0.50005 0.0
C378 C 0.51247 0.61421 0.50051 0.0
C379 C 0.51058 0.63536 0.50055 0.0
C380 C 0.49878 0.55988 0.50001 0.0
C381 C 0.47381 0.63243 0.49967 0.0
C382 C 0.47570 0.61128 0.49963 0.0
C383 C 0.49691 0.58103 0.50003 0.0
C384 C 0.49125 0.64447 0.50014 0.0
H385 H 0.52678 0.60748 0.50081 0.0
H386 H 0.52349 0.64428 0.50088 0.0
H387 H 0.45951 0.63917 0.49936 0.0
H388 H 0.46280 0.60236 0.49928 0.0
C389 C 0.06618 0.50242 0.85093 0.0
C390 C 0.05981 0.50154 0.80987 0.0
C391 C 0.07425 0.50062 0.77829 0.0
C392 C 0.03734 0.50425 0.91416 0.0
C393 C 0.10141 0.50146 0.82881 0.0
C394 C 0.08698 0.50239 0.86039 0.0
C395 C 0.05175 0.50334 0.88253 0.0
C396 C 0.09505 0.50057 0.78775 0.0
H397 H 0.04442 0.50158 0.80285 0.0
H398 H 0.06954 0.49997 0.74788 0.0
H399 H 0.11681 0.50143 0.83581 0.0
H400 H 0.09169 0.50305 0.89079 0.0
C401 C 0.51047 0.06486 0.85060 0.0
C402 C 0.52199 0.06022 0.81559 0.0
C403 C 0.52361 0.07439 0.78384 0.0
C404 C 0.50722 0.03654 0.91416 0.0
C405 C 0.50219 0.09784 0.82210 0.0
C406 C 0.50056 0.08366 0.85385 0.0
C407 C 0.50885 0.05069 0.88236 0.0
C408 C 0.51371 0.09320 0.78710 0.0
H409 H 0.52932 0.04630 0.81316 0.0
H410 H 0.53214 0.07097 0.75791 0.0
H411 H 0.49486 0.11175 0.82450 0.0
H412 H 0.49203 0.08709 0.87976 0.0
C413 C 0.93608 0.50679 0.14898 0.0
C414 C 0.94241 0.50717 0.19009 0.0
C415 C 0.92795 0.50752 0.22166 0.0
C416 C 0.96498 0.50607 0.08579 0.0
C417 C 0.90083 0.50713 0.17101 0.0
C418 C 0.91529 0.50678 0.13944 0.0
C419 C 0.95054 0.50643 0.11740 0.0
C420 C 0.90716 0.50750 0.21212 0.0
H421 H 0.95780 0.50719 0.19717 0.0
H422 H 0.93263 0.50780 0.25210 0.0
H423 H 0.88544 0.50712 0.16395 0.0
H424 H 0.91061 0.50651 0.10900 0.0
C425 C 0.49756 0.93553 0.14968 0.0
C426 C 0.51368 0.93177 0.17688 0.0
C427 C 0.51154 0.91742 0.20817 0.0
C428 C 0.50181 0.96419 0.08704 0.0
C429 C 0.47716 0.91060 0.18508 0.0
C430 C 0.47930 0.92494 0.15379 0.0
C431 C 0.49970 0.94986 0.11837 0.0
C432 C 0.49328 0.90683 0.21227 0.0
H433 H 0.52720 0.93960 0.17386 0.0
H434 H 0.52348 0.91464 0.22832 0.0
H435 H 0.46364 0.90276 0.18811 0.0
H436 H 0.46736 0.92774 0.13365 0.0
C437 C 0.51059 0.06480 0.14920 0.0
C438 C 0.49340 0.07588 0.16168 0.0
C439 C 0.49498 0.09010 0.19352 0.0
C440 C 0.50748 0.03637 0.08550 0.0
C441 C 0.53093 0.08217 0.20041 0.0
C442 C 0.52935 0.06794 0.16858 0.0
C443 C 0.50902 0.05059 0.11735 0.0
C444 C 0.51375 0.09325 0.21288 0.0
H445 H 0.47951 0.07356 0.14736 0.0
H446 H 0.48226 0.09831 0.20277 0.0
H447 H 0.54482 0.08449 0.21475 0.0
H448 H 0.54207 0.05974 0.15934 0.0
C449 C 0.06639 0.50224 0.14992 0.0
C450 C 0.06006 0.50265 0.19099 0.0
C451 C 0.07449 0.50180 0.22267 0.0
C452 C 0.03756 0.50397 0.08650 0.0
C453 C 0.10159 0.50011 0.17221 0.0
C454 C 0.08716 0.50096 0.14053 0.0
C455 C 0.05197 0.50310 0.11822 0.0
C456 C 0.09525 0.50053 0.21328 0.0
H457 H 0.04469 0.50359 0.19795 0.0
H458 H 0.06980 0.50210 0.25308 0.0
H459 H 0.11696 0.49917 0.16526 0.0
H460 H 0.09184 0.50065 0.11012 0.0
C461 C 0.93592 0.50662 0.85029 0.0
C462 C 0.94189 0.51113 0.81007 0.0
C463 C 0.92743 0.51154 0.77841 0.0
C464 C 0.96481 0.50579 0.91365 0.0
C465 C 0.90102 0.50294 0.82720 0.0
C466 C 0.91548 0.50252 0.85885 0.0
C467 C 0.95037 0.50620 0.88196 0.0
C468 C 0.90699 0.50746 0.78698 0.0
H469 H 0.95702 0.51415 0.80371 0.0
H470 H 0.93184 0.51488 0.74863 0.0
H471 H 0.88590 0.49991 0.83354 0.0
H472 H 0.91107 0.49918 0.88863 0.0
C473 C 0.49768 0.93562 0.85070 0.0
C474 C 0.47855 0.93237 0.83297 0.0
C475 C 0.47637 0.91797 0.80160 0.0
C476 C 0.50209 0.96439 0.91346 0.0
C477 C 0.51243 0.91009 0.80572 0.0
C478 C 0.51462 0.92449 0.83707 0.0
C479 C 0.49988 0.95001 0.88208 0.0
C480 C 0.49330 0.90683 0.78798 0.0
H481 H 0.46601 0.94061 0.84303 0.0
H482 H 0.46221 0.91556 0.78846 0.0
H483 H 0.52497 0.90185 0.79563 0.0
H484 H 0.52878 0.92690 0.85021 0.0
