data_{}
_symmetry_space_group_name_H-M    P1
_symmetry_Int_Tables_number       1
_symmetry_cell_setting            triclinic
loop_
_symmetry_equiv_pos_as_xyz
'x, y, z'
_cell_length_a     59.366
_cell_length_b     60.103
_cell_length_c     40.269
_cell_angle_alpha  89.996
_cell_angle_beta   90.121
_cell_angle_gamma  122.917
loop_
_atom_site_label
_atom_site_type_symbol
_atom_site_fract_x
_atom_site_fract_y
_atom_site_fract_z
_atom_type_partial_charge
H0 H 0.08651 0.06406 0.01607 0.0
H1 H 0.07805 0.03434 0.01501 0.0
H2 H 0.05463 0.00010 0.99781 0.0
H3 H 0.02869 0.98184 0.97681 0.0
H4 H 0.02784 0.97929 0.01559 0.0
H5 H 0.02145 0.08641 0.99292 0.0
H6 H 0.99293 0.06433 0.98000 0.0
H7 H 0.07646 0.09050 0.01505 0.0
H8 H 0.05425 0.09657 0.00866 0.0
H9 H 0.06829 0.09235 0.97862 0.0
H10 H 0.95441 0.00010 0.01623 0.0
H11 H 0.95604 0.00403 0.97753 0.0
H12 H 0.96222 0.02789 0.00010 0.0
C13 C 0.04056 0.05754 0.00127 0.0
C14 C 0.01343 0.04912 0.99990 0.0
C15 C 0.04735 0.03875 0.00169 0.0
C16 C 0.07652 0.04765 0.00355 0.0
C17 C 0.00010 0.00371 0.99990 0.0
C18 C 0.02786 0.01181 0.99990 0.0
C19 C 0.99345 0.02212 0.99990 0.0
H20 H 0.98678 0.96493 0.99004 0.0
H21 H 0.96507 0.97175 0.98383 0.0
C22 C 0.03545 0.99141 0.99729 0.0
C23 C 0.00564 0.06916 0.99801 0.0
C24 C 0.06184 0.08694 0.00010 0.0
C25 C 0.96376 0.01285 0.99823 0.0
C26 C 0.97940 0.97475 0.99863 0.0
C27 C 0.85157 0.30094 0.78147 0.0
C28 C 0.83174 0.27647 0.80226 0.0
C29 C 0.84203 0.26866 0.83236 0.0
C30 C 0.82246 0.24419 0.85335 0.0
C31 C 0.83297 0.23651 0.88337 0.0
C32 C 0.86301 0.25329 0.89227 0.0
C33 C 0.88253 0.27779 0.87137 0.0
C34 C 0.87204 0.28546 0.84139 0.0
C35 C 0.85125 0.22426 0.94245 0.0
C36 C 0.86627 0.22310 0.97275 0.0
C37 C 0.87849 0.20619 0.97148 0.0
C38 C 0.89783 0.20916 0.99990 0.0
C39 C 0.90231 0.22641 0.02986 0.0
C40 C 0.88797 0.24132 0.03244 0.0
C41 C 0.86996 0.23969 0.00381 0.0
C42 C 0.85739 0.25634 0.00508 0.0
C43 C 0.87317 0.18814 0.94132 0.0
C44 C 0.92189 0.22944 0.05732 0.0
C45 C 0.91304 0.19521 0.99607 0.0
C46 C 0.95874 0.20533 0.98790 0.0
C47 C 0.94579 0.17545 0.99345 0.0
C48 C 0.96353 0.16404 0.99530 0.0
C49 C 0.99417 0.18253 0.99159 0.0
C50 C 0.00709 0.21241 0.98575 0.0
C51 C 0.98935 0.22382 0.98391 0.0
C52 C 0.01184 0.17107 0.99379 0.0
C53 C 0.99877 0.14119 0.99990 0.0
C54 C 0.89276 0.25908 0.06262 0.0
C55 C 0.87464 0.25720 0.11796 0.0
C56 C 0.89633 0.28701 0.12025 0.0
C57 C 0.89468 0.30393 0.14762 0.0
C58 C 0.87130 0.29101 0.17255 0.0
C59 C 0.84967 0.26118 0.17026 0.0
C60 C 0.85134 0.24426 0.14294 0.0
C61 C 0.86940 0.30787 0.19975 0.0
C62 C 0.84581 0.29478 0.22435 0.0
O63 O 0.87342 0.24611 0.92179 0.0
O64 O 0.87548 0.24088 0.09022 0.0
O65 O 0.94147 0.21661 0.98718 0.0
H66 H 0.87376 0.31319 0.78844 0.0
H67 H 0.80955 0.26416 0.79537 0.0
H68 H 0.80024 0.23176 0.84667 0.0
H69 H 0.81854 0.21843 0.89898 0.0
H70 H 0.90474 0.29024 0.87811 0.0
H71 H 0.88648 0.30356 0.82586 0.0
H72 H 0.84055 0.20467 0.92830 0.0
H73 H 0.83643 0.22971 0.95048 0.0
H74 H 0.86657 0.27098 0.02659 0.0
H75 H 0.83478 0.24277 0.00877 0.0
H76 H 0.86165 0.26764 0.98075 0.0
H77 H 0.86643 0.19505 0.91926 0.0
H78 H 0.85666 0.16689 0.94785 0.0
H79 H 0.89220 0.18887 0.93460 0.0
H80 H 0.92362 0.24398 0.07693 0.0
H81 H 0.94242 0.23725 0.04587 0.0
H82 H 0.91419 0.20935 0.06928 0.0
H83 H 0.91267 0.18585 0.02085 0.0
H84 H 0.90379 0.17946 0.97576 0.0
H85 H 0.92311 0.16181 0.99634 0.0
H86 H 0.95399 0.14192 0.99990 0.0
H87 H 0.02977 0.22608 0.98289 0.0
H88 H 0.99887 0.24595 0.97973 0.0
H89 H 0.03454 0.18466 0.99103 0.0
H90 H 0.97607 0.12765 0.00251 0.0
H91 H 0.91477 0.27081 0.07038 0.0
H92 H 0.88623 0.27325 0.05618 0.0
H93 H 0.91347 0.29654 0.10158 0.0
H94 H 0.91069 0.32603 0.14936 0.0
H95 H 0.83238 0.25167 0.18874 0.0
H96 H 0.83526 0.22221 0.14106 0.0
H97 H 0.88536 0.32997 0.20166 0.0
H98 H 0.82989 0.27267 0.22235 0.0
C99 C 0.48047 0.17918 0.22126 0.0
C100 C 0.47379 0.15484 0.20039 0.0
C101 C 0.45487 0.14675 0.17026 0.0
C102 C 0.44792 0.12240 0.14920 0.0
C103 C 0.42892 0.11443 0.11915 0.0
C104 C 0.41689 0.13081 0.11030 0.0
C105 C 0.42391 0.15518 0.13128 0.0
C106 C 0.44289 0.16314 0.16128 0.0
C107 C 0.39708 0.10170 0.06002 0.0
C108 C 0.38063 0.10024 0.02972 0.0
C109 C 0.34983 0.08291 0.03093 0.0
C110 C 0.33352 0.08553 0.00326 0.0
C111 C 0.34783 0.10288 0.97261 0.0
C112 C 0.37861 0.11823 0.97008 0.0
C113 C 0.39503 0.11694 0.99871 0.0
C114 C 0.42590 0.13400 0.99750 0.0
C115 C 0.33549 0.06477 0.06103 0.0
C116 C 0.33136 0.10556 0.94516 0.0
C117 C 0.30292 0.07114 0.00629 0.0
C118 C 0.26779 0.08048 0.01449 0.0
C119 C 0.24824 0.05053 0.00884 0.0
C120 C 0.21785 0.03865 0.00695 0.0
C121 C 0.20708 0.05674 0.01071 0.0
C122 C 0.22665 0.08668 0.01665 0.0
C123 C 0.25703 0.09856 0.01853 0.0
C124 C 0.17671 0.04481 0.00848 0.0
C125 C 0.15729 0.01487 0.00239 0.0
C126 C 0.39316 0.13609 0.93997 0.0
C127 C 0.40943 0.13455 0.88462 0.0
C128 C 0.42005 0.16424 0.88243 0.0
C129 C 0.44020 0.18138 0.85511 0.0
C130 C 0.44972 0.16878 0.83015 0.0
C131 C 0.43901 0.13906 0.83234 0.0
C132 C 0.41884 0.12192 0.85960 0.0
C133 C 0.47006 0.18585 0.80300 0.0
C134 C 0.47960 0.17309 0.77836 0.0
O135 O 0.39853 0.12335 0.08075 0.0
O136 O 0.39075 0.11803 0.91230 0.0
O137 O 0.29756 0.09221 0.01525 0.0
H138 H 0.47142 0.19113 0.21433 0.0
H139 H 0.48279 0.14284 0.20725 0.0
H140 H 0.45681 0.11028 0.15584 0.0
H141 H 0.42376 0.09644 0.10348 0.0
H142 H 0.41506 0.16733 0.12457 0.0
H143 H 0.44806 0.18115 0.17687 0.0
H144 H 0.38651 0.08212 0.07410 0.0
H145 H 0.41801 0.10751 0.05201 0.0
H146 H 0.43262 0.14863 0.97603 0.0
H147 H 0.43394 0.12073 0.99377 0.0
H148 H 0.43394 0.14534 0.02187 0.0
H149 H 0.34984 0.07188 0.08311 0.0
H150 H 0.32897 0.04362 0.05443 0.0
H151 H 0.31705 0.06514 0.06774 0.0
H152 H 0.34549 0.12022 0.92560 0.0
H153 H 0.31913 0.11305 0.95663 0.0
H154 H 0.31719 0.08541 0.93313 0.0
H155 H 0.29306 0.06168 0.98148 0.0
H156 H 0.29506 0.05540 0.02655 0.0
H157 H 0.25627 0.03719 0.00591 0.0
H158 H 0.20334 0.01648 0.00269 0.0
H159 H 0.21865 0.10005 0.01956 0.0
H160 H 0.27158 0.12074 0.02278 0.0
H161 H 0.16861 0.05810 0.01128 0.0
H162 H 0.16545 0.00163 0.99990 0.0
H163 H 0.38372 0.14751 0.93223 0.0
H164 H 0.41523 0.15054 0.94645 0.0
H165 H 0.41314 0.17355 0.90113 0.0
H166 H 0.44816 0.20340 0.85344 0.0
H167 H 0.44610 0.12978 0.81383 0.0
H168 H 0.41102 0.09995 0.86141 0.0
H169 H 0.47806 0.20788 0.80117 0.0
H170 H 0.47156 0.15106 0.78029 0.0
C171 C 0.68403 0.57436 0.78090 0.0
C172 C 0.70888 0.58161 0.80183 0.0
C173 C 0.71661 0.60022 0.83192 0.0
C174 C 0.74146 0.60773 0.85304 0.0
C175 C 0.74906 0.62643 0.88306 0.0
C176 C 0.73183 0.63759 0.89181 0.0
C177 C 0.70696 0.63001 0.87077 0.0
C178 C 0.69937 0.61134 0.84081 0.0
C179 C 0.76117 0.65773 0.94211 0.0
C180 C 0.76217 0.67374 0.97237 0.0
C181 C 0.77904 0.70418 0.97111 0.0
C182 C 0.77583 0.71994 0.99872 0.0
C183 C 0.75843 0.70551 0.02936 0.0
C184 C 0.74359 0.67515 0.03194 0.0
C185 C 0.74543 0.65925 0.00337 0.0
C186 C 0.72883 0.62875 0.00463 0.0
C187 C 0.79726 0.71867 0.94102 0.0
C188 C 0.75515 0.72141 0.05674 0.0
C189 C 0.78969 0.75008 0.99562 0.0
C190 C 0.77898 0.78389 0.98727 0.0
C191 C 0.80919 0.80380 0.99296 0.0
C192 C 0.82047 0.83366 0.99479 0.0
C193 C 0.80151 0.84355 0.99092 0.0
C194 C 0.77131 0.82363 0.98496 0.0
C195 C 0.76003 0.79376 0.98314 0.0
C196 C 0.81285 0.87341 0.99310 0.0
C197 C 0.84305 0.89319 0.99990 0.0
C198 C 0.72566 0.66046 0.06205 0.0
C199 C 0.72776 0.64473 0.11745 0.0
C200 C 0.69752 0.63349 0.11958 0.0
C201 C 0.68051 0.61340 0.14691 0.0
C202 C 0.69379 0.60456 0.17195 0.0
C203 C 0.72404 0.61588 0.16982 0.0
C204 C 0.74105 0.63599 0.14254 0.0
C205 C 0.67685 0.58429 0.19911 0.0
C206 C 0.69029 0.57542 0.22382 0.0
O207 O 0.73893 0.65564 0.92132 0.0
O208 O 0.74417 0.66338 0.08976 0.0
O209 O 0.76783 0.75463 0.98658 0.0
H210 H 0.67145 0.58277 0.78777 0.0
H211 H 0.72151 0.57325 0.79505 0.0
H212 H 0.75421 0.59948 0.84647 0.0
H213 H 0.76742 0.63199 0.89876 0.0
H214 H 0.69418 0.63822 0.87741 0.0
H215 H 0.68099 0.60576 0.82518 0.0
H216 H 0.78100 0.66861 0.92806 0.0
H217 H 0.75585 0.63723 0.95018 0.0
H218 H 0.71399 0.62177 0.02607 0.0
H219 H 0.74274 0.62137 0.00844 0.0
H220 H 0.71741 0.62059 0.98025 0.0
H221 H 0.79039 0.70451 0.91897 0.0
H222 H 0.81882 0.72565 0.94767 0.0
H223 H 0.79631 0.73655 0.93424 0.0
H224 H 0.74050 0.70724 0.07630 0.0
H225 H 0.74706 0.73304 0.04520 0.0
H226 H 0.77545 0.73579 0.06879 0.0
H227 H 0.79912 0.75995 0.02043 0.0
H228 H 0.80564 0.75820 0.97539 0.0
H229 H 0.82318 0.79642 0.99596 0.0
H230 H 0.84284 0.84845 0.99990 0.0
H231 H 0.75730 0.83097 0.98197 0.0
H232 H 0.73765 0.77895 0.97886 0.0
H233 H 0.79891 0.88086 0.99023 0.0
H234 H 0.85693 0.88569 0.00206 0.0
H235 H 0.71361 0.66927 0.06971 0.0
H236 H 0.71148 0.63859 0.05559 0.0
H237 H 0.68773 0.63991 0.10083 0.0
H238 H 0.65810 0.60498 0.14854 0.0
H239 H 0.73381 0.60929 0.18839 0.0
H240 H 0.76342 0.64426 0.14078 0.0
H241 H 0.65443 0.57583 0.20090 0.0
H242 H 0.71271 0.58392 0.22194 0.0
O243 O 0.66469 0.36546 0.54201 0.0
Be244 Be 0.70877 0.35631 0.53861 0.0
Be245 Be 0.69482 0.39208 0.46428 0.0
O246 O 0.72329 0.34489 0.56037 0.0
Be247 Be 0.69483 0.39209 0.53856 0.0
O248 O 0.72259 0.36260 0.60768 0.0
O249 O 0.69584 0.41528 0.44256 0.0
Be250 Be 0.70876 0.35630 0.46433 0.0
O251 O 0.70608 0.40481 0.39528 0.0
O252 O 0.67634 0.33550 0.46071 0.0
O253 O 0.67636 0.33551 0.54205 0.0
O254 O 0.69586 0.41530 0.56028 0.0
O255 O 0.70613 0.40484 0.60762 0.0
H256 H 0.73228 0.39731 0.55805 0.0
H257 H 0.73225 0.39729 0.44501 0.0
O258 O 0.72327 0.34487 0.44265 0.0
O259 O 0.72254 0.36256 0.39533 0.0
H260 H 0.72960 0.35115 0.50153 0.0
H261 H 0.70306 0.41928 0.50144 0.0
O262 O 0.66467 0.36544 0.46067 0.0
O263 O 0.71612 0.38506 0.54773 0.0
O264 O 0.71610 0.38504 0.45523 0.0
O265 O 0.71604 0.35451 0.50149 0.0
O266 O 0.69770 0.40158 0.50143 0.0
C267 C 0.72695 0.34819 0.59186 0.0
C268 C 0.69980 0.41776 0.41109 0.0
C269 C 0.69984 0.41779 0.59177 0.0
C270 C 0.72691 0.34816 0.41118 0.0
C271 C 0.65895 0.34171 0.54544 0.0
C272 C 0.65893 0.34169 0.45722 0.0
C273 C 0.78031 0.33615 0.61943 0.0
C274 C 0.77178 0.32915 0.65598 0.0
C275 C 0.74637 0.32736 0.66855 0.0
C276 C 0.72947 0.33256 0.64459 0.0
C277 C 0.83902 0.30824 0.75230 0.0
C278 C 0.76341 0.34135 0.59546 0.0
C279 C 0.78865 0.32394 0.67998 0.0
C280 C 0.80547 0.31872 0.70404 0.0
C281 C 0.82225 0.31348 0.72815 0.0
C282 C 0.73800 0.33956 0.60804 0.0
H283 H 0.79912 0.33748 0.61011 0.0
H284 H 0.74005 0.32219 0.69561 0.0
H285 H 0.71066 0.33123 0.65391 0.0
H286 H 0.76973 0.34654 0.56841 0.0
C287 C 0.61673 0.28073 0.37930 0.0
C288 C 0.58900 0.27680 0.37501 0.0
C289 C 0.58065 0.29167 0.39781 0.0
C290 C 0.60002 0.31047 0.42490 0.0
C291 C 0.51121 0.20174 0.26679 0.0
C292 C 0.63610 0.29953 0.40640 0.0
C293 C 0.56961 0.25802 0.34793 0.0
C294 C 0.55018 0.23925 0.32087 0.0
C295 C 0.53071 0.22049 0.29383 0.0
C296 C 0.62774 0.31439 0.42920 0.0
H297 H 0.62292 0.26973 0.36242 0.0
H298 H 0.56013 0.28876 0.39465 0.0
H299 H 0.59383 0.32147 0.44177 0.0
H300 H 0.65662 0.30243 0.40958 0.0
C301 C 0.61950 0.28912 0.63080 0.0
C302 C 0.58913 0.27694 0.62733 0.0
C303 C 0.57810 0.28352 0.59683 0.0
C304 C 0.59744 0.30228 0.56981 0.0
C305 C 0.51139 0.20184 0.73509 0.0
C306 C 0.63884 0.30787 0.60377 0.0
C307 C 0.56976 0.25818 0.65432 0.0
C308 C 0.55034 0.23941 0.68128 0.0
C309 C 0.53088 0.22063 0.70819 0.0
C310 C 0.62781 0.31445 0.57328 0.0
H311 H 0.62767 0.28425 0.65337 0.0
H312 H 0.55562 0.27452 0.59426 0.0
H313 H 0.58926 0.30714 0.54724 0.0
H314 H 0.66132 0.31689 0.60635 0.0
C315 C 0.67123 0.46105 0.37426 0.0
C316 C 0.69123 0.47559 0.34572 0.0
C317 C 0.71417 0.47121 0.33986 0.0
C318 C 0.71712 0.45230 0.36251 0.0
C319 C 0.67981 0.55134 0.25475 0.0
C320 C 0.67419 0.44213 0.39691 0.0
C321 C 0.68831 0.49451 0.32304 0.0
C322 C 0.68544 0.51345 0.30031 0.0
C323 C 0.68261 0.53238 0.27754 0.0
C324 C 0.69713 0.43776 0.39104 0.0
H325 H 0.65424 0.46429 0.37860 0.0
H326 H 0.72898 0.48198 0.31874 0.0
H327 H 0.73411 0.44906 0.35815 0.0
H328 H 0.65939 0.43137 0.41804 0.0
C329 C 0.71131 0.46756 0.66661 0.0
C330 C 0.69161 0.47574 0.65737 0.0
C331 C 0.67473 0.46497 0.62539 0.0
C332 C 0.67755 0.44602 0.60265 0.0
C333 C 0.67998 0.55150 0.74795 0.0
C334 C 0.71413 0.44860 0.64386 0.0
C335 C 0.68877 0.49468 0.68008 0.0
C336 C 0.68587 0.51362 0.70274 0.0
C337 C 0.68294 0.53256 0.72536 0.0
C338 C 0.69724 0.43784 0.61188 0.0
H339 H 0.72381 0.47553 0.69028 0.0
H340 H 0.66015 0.47102 0.61854 0.0
H341 H 0.66504 0.43804 0.57898 0.0
H342 H 0.72871 0.44255 0.65070 0.0
C343 C 0.74059 0.31283 0.34393 0.0
C344 C 0.77139 0.32897 0.34702 0.0
C345 C 0.78542 0.35038 0.37412 0.0
C346 C 0.76866 0.35564 0.39813 0.0
C347 C 0.83888 0.30826 0.25131 0.0
C348 C 0.72383 0.31809 0.36794 0.0
C349 C 0.78819 0.32374 0.32305 0.0
C350 C 0.80505 0.31855 0.29910 0.0
C351 C 0.82195 0.31339 0.27520 0.0
C352 C 0.73786 0.33950 0.39504 0.0
H353 H 0.73021 0.29698 0.32387 0.0
H354 H 0.80822 0.36234 0.37641 0.0
H355 H 0.77905 0.37148 0.41819 0.0
H356 H 0.70103 0.30615 0.36564 0.0
N357 N 0.99818 0.08683 0.00102 0.0
N358 N 0.00640 0.11594 0.00126 0.0
N359 N 0.10554 0.03577 0.00010 0.0
N360 N 0.12041 0.02129 0.00010 0.0
N361 N 0.92349 0.94868 0.00010 0.0
N362 N 0.89268 0.93405 0.00010 0.0
