data_{}
_symmetry_space_group_name_H-M    P1
_symmetry_Int_Tables_number       1
_symmetry_cell_setting            triclinic
loop_
_symmetry_equiv_pos_as_xyz
'x, y, z'
_cell_length_a     73.043
_cell_length_b     72.969
_cell_length_c     40.277
_cell_angle_alpha  89.992
_cell_angle_beta   90.142
_cell_angle_gamma  122.093
loop_
_atom_site_label
_atom_site_type_symbol
_atom_site_fract_x
_atom_site_fract_y
_atom_site_fract_z
_atom_type_partial_charge
C0 C 0.05652 0.04595 0.98956 0.0
C1 C 0.02865 0.05270 0.96595 0.0
C2 C 0.99990 0.06036 0.95404 0.0
C3 C 0.03475 0.03794 0.97407 0.0
C4 C 0.02712 0.00010 0.97695 0.0
C5 C 0.00729 0.04515 0.95799 0.0
C6 C 0.96835 0.01423 0.94932 0.0
C7 C 0.01993 0.01568 0.97038 0.0
C8 C 0.99215 0.02287 0.95620 0.0
C9 C 0.99862 0.00806 0.96080 0.0
C10 C 0.98267 0.98476 0.95617 0.0
C11 C 0.95422 0.95502 0.98695 0.0
C12 C 0.09214 0.05462 0.97770 0.0
C13 C 0.94799 0.94122 0.96019 0.0
C14 C 0.94371 0.94718 0.01666 0.0
C15 C 0.10598 0.05201 0.95731 0.0
C16 C 0.09978 0.06488 0.00772 0.0
C17 C 0.93206 0.91999 0.96389 0.0
C18 C 0.92766 0.92603 0.02016 0.0
C19 C 0.12644 0.05925 0.96695 0.0
C20 C 0.12067 0.07237 0.01742 0.0
C21 C 0.92171 0.91165 0.99379 0.0
C22 C 0.13461 0.06975 0.99698 0.0
C23 C 0.96065 0.09365 0.00325 0.0
C24 C 0.97237 0.07653 0.96698 0.0
C25 C 0.96115 0.08629 0.97318 0.0
C26 C 0.97086 0.09020 0.02706 0.0
O27 O 0.07170 0.04709 0.96586 0.0
O28 O 0.99364 0.06304 0.98693 0.0
O29 O 0.97037 0.97637 0.98635 0.0
H30 H 0.98840 0.07738 0.03784 0.0
H31 H 0.03888 0.08481 0.96049 0.0
H32 H 0.05677 0.08011 0.95079 0.0
H33 H 0.05169 0.08117 0.98827 0.0
H34 H 0.06204 0.06019 0.99898 0.0
H35 H 0.05491 0.03632 0.00750 0.0
H36 H 0.01108 0.07416 0.94528 0.0
H37 H 0.98735 0.05441 0.93913 0.0
H38 H 0.04214 0.00796 0.98313 0.0
H39 H 0.02514 0.99176 0.95725 0.0
H40 H 0.01867 0.99044 0.99467 0.0
H41 H 0.96034 0.99872 0.94928 0.0
H42 H 0.96695 0.01933 0.92808 0.0
H43 H 0.96282 0.01926 0.96627 0.0
H44 H 0.97310 0.98257 0.93775 0.0
H45 H 0.99001 0.97725 0.95121 0.0
H46 H 0.95460 0.94633 0.93969 0.0
H47 H 0.94764 0.95651 0.03472 0.0
H48 H 0.10103 0.04516 0.93685 0.0
H49 H 0.09076 0.06678 0.02158 0.0
H50 H 0.92804 0.91083 0.94566 0.0
H51 H 0.92061 0.92113 0.04040 0.0
H52 H 0.13531 0.05714 0.95303 0.0
H53 H 0.12559 0.07923 0.03784 0.0
H54 H 0.97249 0.07184 0.94554 0.0
H55 H 0.95358 0.08781 0.95590 0.0
H56 H 0.97072 0.09472 0.04859 0.0
C57 C 0.98169 0.07995 0.02043 0.0
C58 C 0.98294 0.07366 0.99033 0.0
C59 C 0.04557 0.07694 0.96641 0.0
C60 C 0.82166 0.32653 0.78221 0.0
C61 C 0.80587 0.30656 0.80299 0.0
C62 C 0.81433 0.30017 0.83308 0.0
C63 C 0.79875 0.28020 0.85406 0.0
C64 C 0.80739 0.27391 0.88408 0.0
C65 C 0.83156 0.28758 0.89299 0.0
C66 C 0.84711 0.30757 0.87210 0.0
C67 C 0.83849 0.31385 0.84212 0.0
C68 C 0.82239 0.26388 0.94315 0.0
C69 C 0.83461 0.26291 0.97344 0.0
C70 C 0.84475 0.24909 0.97218 0.0
C71 C 0.86042 0.25148 0.99990 0.0
C72 C 0.86384 0.26557 0.03056 0.0
C73 C 0.85200 0.27776 0.03314 0.0
C74 C 0.83740 0.27646 0.00450 0.0
C75 C 0.82698 0.29007 0.00578 0.0
C76 C 0.84065 0.23435 0.94202 0.0
C77 C 0.87970 0.26801 0.05801 0.0
C78 C 0.87294 0.24007 0.99677 0.0
C79 C 0.90993 0.24829 0.98861 0.0
C80 C 0.89980 0.22389 0.99415 0.0
C81 C 0.91435 0.21455 0.99600 0.0
C82 C 0.93899 0.22962 0.99231 0.0
C83 C 0.94910 0.25401 0.98648 0.0
C84 C 0.93455 0.26335 0.98463 0.0
C85 C 0.95349 0.22023 0.99450 0.0
C86 C 0.94326 0.19585 0.00010 0.0
C87 C 0.85567 0.29226 0.06331 0.0
C88 C 0.84098 0.29075 0.11863 0.0
C89 C 0.85822 0.31507 0.12094 0.0
C90 C 0.85667 0.32889 0.14831 0.0
C91 C 0.83784 0.31836 0.17322 0.0
C92 C 0.82066 0.29402 0.17092 0.0
C93 C 0.82223 0.28020 0.14361 0.0
C94 C 0.83609 0.33213 0.20042 0.0
C95 C 0.81710 0.32146 0.22501 0.0
O96 O 0.84012 0.28171 0.92251 0.0
O97 O 0.84187 0.27741 0.09090 0.0
O98 O 0.89576 0.25752 0.98789 0.0
H99 H 0.83952 0.33650 0.78919 0.0
H100 H 0.78800 0.29654 0.79609 0.0
H101 H 0.78086 0.27008 0.84738 0.0
H102 H 0.79590 0.25916 0.89968 0.0
H103 H 0.86499 0.31771 0.87885 0.0
H104 H 0.84998 0.32862 0.82660 0.0
H105 H 0.81395 0.24790 0.92900 0.0
H106 H 0.81029 0.26835 0.95118 0.0
H107 H 0.83424 0.30202 0.02729 0.0
H108 H 0.80879 0.27901 0.00946 0.0
H109 H 0.83029 0.29929 0.98145 0.0
H110 H 0.83509 0.24000 0.91997 0.0
H111 H 0.82751 0.21701 0.94854 0.0
H112 H 0.85610 0.23492 0.93531 0.0
H113 H 0.88092 0.27989 0.07762 0.0
H114 H 0.89627 0.27437 0.04657 0.0
H115 H 0.87371 0.25161 0.06997 0.0
H116 H 0.87277 0.23242 0.02154 0.0
H117 H 0.86564 0.22722 0.97646 0.0
H118 H 0.88155 0.21278 0.99703 0.0
H119 H 0.90688 0.19649 0.00010 0.0
H120 H 0.96735 0.26515 0.98362 0.0
H121 H 0.94200 0.28142 0.98046 0.0
H122 H 0.97175 0.23131 0.99175 0.0
H123 H 0.92499 0.18481 0.00321 0.0
H124 H 0.87340 0.30181 0.07108 0.0
H125 H 0.85019 0.30385 0.05687 0.0
H126 H 0.87202 0.32284 0.10227 0.0
H127 H 0.86938 0.34692 0.15006 0.0
H128 H 0.80674 0.28627 0.18940 0.0
H129 H 0.80944 0.26221 0.14172 0.0
H130 H 0.84877 0.35016 0.20233 0.0
H131 H 0.80445 0.30343 0.22300 0.0
C132 C 0.51447 0.20181 0.22169 0.0
C133 C 0.50927 0.18191 0.20082 0.0
C134 C 0.49402 0.17538 0.17070 0.0
C135 C 0.48860 0.15547 0.14964 0.0
C136 C 0.47327 0.14904 0.11960 0.0
C137 C 0.46338 0.16250 0.11074 0.0
C138 C 0.46885 0.18243 0.13172 0.0
C139 C 0.48416 0.18886 0.16172 0.0
C140 C 0.44758 0.13877 0.06048 0.0
C141 C 0.43426 0.13764 0.03018 0.0
C142 C 0.40946 0.12361 0.03138 0.0
C143 C 0.39622 0.12583 0.00372 0.0
C144 C 0.40765 0.13997 0.97308 0.0
C145 C 0.43245 0.15238 0.97055 0.0
C146 C 0.44577 0.15124 0.99990 0.0
C147 C 0.47062 0.16506 0.99796 0.0
C148 C 0.39801 0.10883 0.06148 0.0
C149 C 0.39428 0.14224 0.94562 0.0
C150 C 0.37156 0.11420 0.00675 0.0
C151 C 0.34302 0.12202 0.01494 0.0
C152 C 0.32745 0.09760 0.00929 0.0
C153 C 0.30294 0.08802 0.00740 0.0
C154 C 0.29405 0.10289 0.01116 0.0
C155 C 0.30964 0.12731 0.01709 0.0
C156 C 0.33415 0.13688 0.01898 0.0
C157 C 0.26955 0.09327 0.00892 0.0
C158 C 0.25409 0.06885 0.00284 0.0
C159 C 0.44407 0.16693 0.94044 0.0
C160 C 0.45725 0.16558 0.88511 0.0
C161 C 0.46560 0.18985 0.88291 0.0
C162 C 0.48176 0.20378 0.85560 0.0
C163 C 0.48958 0.19341 0.83064 0.0
C164 C 0.48117 0.16912 0.83283 0.0
C165 C 0.46499 0.15519 0.86009 0.0
C166 C 0.50589 0.20729 0.80350 0.0
C167 C 0.51373 0.19678 0.77887 0.0
O168 O 0.44857 0.15649 0.08120 0.0
O169 O 0.44227 0.15215 0.91278 0.0
O170 O 0.36703 0.13149 0.01570 0.0
H171 H 0.50704 0.21164 0.21475 0.0
H172 H 0.51667 0.17204 0.20768 0.0
H173 H 0.49591 0.14550 0.15628 0.0
H174 H 0.46925 0.13433 0.10393 0.0
H175 H 0.46157 0.19243 0.12501 0.0
H176 H 0.48819 0.20358 0.17730 0.0
H177 H 0.43919 0.12278 0.07456 0.0
H178 H 0.46448 0.14341 0.05247 0.0
H179 H 0.47594 0.17701 0.97650 0.0
H180 H 0.47725 0.15416 0.99424 0.0
H181 H 0.47704 0.17431 0.02233 0.0
H182 H 0.40958 0.11458 0.08356 0.0
H183 H 0.39292 0.09154 0.05489 0.0
H184 H 0.38308 0.10922 0.06819 0.0
H185 H 0.40559 0.15418 0.92607 0.0
H186 H 0.38431 0.14844 0.95709 0.0
H187 H 0.38298 0.12581 0.93360 0.0
H188 H 0.36366 0.10650 0.98194 0.0
H189 H 0.36534 0.10135 0.02701 0.0
H190 H 0.33407 0.08663 0.00637 0.0
H191 H 0.29138 0.06994 0.00314 0.0
H192 H 0.30304 0.13830 0.02000 0.0
H193 H 0.34573 0.15498 0.02323 0.0
H194 H 0.26287 0.10420 0.01172 0.0
H195 H 0.26081 0.05797 0.00010 0.0
H196 H 0.43632 0.17633 0.93270 0.0
H197 H 0.46182 0.17865 0.94692 0.0
H198 H 0.45992 0.19750 0.90160 0.0
H199 H 0.48801 0.22177 0.85393 0.0
H200 H 0.48699 0.16149 0.81433 0.0
H201 H 0.45885 0.13724 0.86190 0.0
H202 H 0.51218 0.22528 0.80167 0.0
H203 H 0.50741 0.17878 0.78080 0.0
C204 C 0.65705 0.52931 0.78141 0.0
C205 C 0.67698 0.53467 0.80235 0.0
C206 C 0.68339 0.54993 0.83243 0.0
C207 C 0.70333 0.55551 0.85356 0.0
C208 C 0.70965 0.57084 0.88356 0.0
C209 C 0.69603 0.58056 0.89231 0.0
C210 C 0.67608 0.57493 0.87126 0.0
C211 C 0.66977 0.55962 0.84130 0.0
C212 C 0.71972 0.59652 0.94261 0.0
C213 C 0.72072 0.60979 0.97285 0.0
C214 C 0.73458 0.63463 0.97160 0.0
C215 C 0.73222 0.64779 0.99990 0.0
C216 C 0.71814 0.63627 0.02982 0.0
C217 C 0.70591 0.61146 0.03241 0.0
C218 C 0.70717 0.59821 0.00384 0.0
C219 C 0.69353 0.57332 0.00511 0.0
C220 C 0.74931 0.64617 0.94152 0.0
C221 C 0.71573 0.64957 0.05720 0.0
C222 C 0.74367 0.67246 0.99610 0.0
C223 C 0.73555 0.70082 0.98773 0.0
C224 C 0.75993 0.71655 0.99343 0.0
C225 C 0.76932 0.74105 0.99525 0.0
C226 C 0.75431 0.74977 0.99138 0.0
C227 C 0.72994 0.73402 0.98540 0.0
C228 C 0.72055 0.70952 0.98358 0.0
C229 C 0.76374 0.77426 0.99355 0.0
C230 C 0.78811 0.78989 0.99990 0.0
C231 C 0.69141 0.59974 0.06250 0.0
C232 C 0.69288 0.58663 0.11790 0.0
C233 C 0.66860 0.57809 0.12002 0.0
C234 C 0.65476 0.56186 0.14734 0.0
C235 C 0.66525 0.55417 0.17238 0.0
C236 C 0.68955 0.56277 0.17027 0.0
C237 C 0.70338 0.57902 0.14300 0.0
C238 C 0.65146 0.53779 0.19954 0.0
C239 C 0.66208 0.53007 0.22425 0.0
O240 O 0.70193 0.59537 0.92181 0.0
O241 O 0.70623 0.60167 0.09022 0.0
O242 O 0.72628 0.67681 0.98704 0.0
H243 H 0.64712 0.53663 0.78827 0.0
H244 H 0.68696 0.52740 0.79557 0.0
H245 H 0.71341 0.54832 0.84700 0.0
H246 H 0.72437 0.57498 0.89928 0.0
H247 H 0.66598 0.58209 0.87789 0.0
H248 H 0.65503 0.55547 0.82567 0.0
H249 H 0.73569 0.60502 0.92857 0.0
H250 H 0.71521 0.57964 0.95067 0.0
H251 H 0.68159 0.56791 0.02654 0.0
H252 H 0.70454 0.56682 0.00892 0.0
H253 H 0.68431 0.56684 0.98073 0.0
H254 H 0.74364 0.63459 0.91947 0.0
H255 H 0.76662 0.65140 0.94817 0.0
H256 H 0.74878 0.66104 0.93473 0.0
H257 H 0.70386 0.63819 0.07675 0.0
H258 H 0.70942 0.65944 0.04565 0.0
H259 H 0.73213 0.66097 0.06925 0.0
H260 H 0.75133 0.68041 0.02090 0.0
H261 H 0.75651 0.67878 0.97587 0.0
H262 H 0.77100 0.71006 0.99643 0.0
H263 H 0.78736 0.75274 0.99990 0.0
H264 H 0.71885 0.74049 0.98241 0.0
H265 H 0.70250 0.69781 0.97930 0.0
H266 H 0.75271 0.78082 0.99067 0.0
H267 H 0.79910 0.78329 0.00253 0.0
H268 H 0.68190 0.60738 0.07015 0.0
H269 H 0.67980 0.58196 0.05604 0.0
H270 H 0.66086 0.58368 0.10126 0.0
H271 H 0.63676 0.55547 0.14896 0.0
H272 H 0.69727 0.55704 0.18884 0.0
H273 H 0.72135 0.58530 0.14124 0.0
H274 H 0.63346 0.53136 0.20131 0.0
H275 H 0.68009 0.53654 0.22238 0.0
O276 O 0.65598 0.36105 0.54252 0.0
Be277 Be 0.69347 0.35597 0.53915 0.0
Be278 Be 0.67953 0.38350 0.46482 0.0
O279 O 0.70635 0.34767 0.56093 0.0
Be280 Be 0.67955 0.38351 0.53909 0.0
O281 O 0.70465 0.36160 0.60822 0.0
O282 O 0.67893 0.40185 0.44309 0.0
Be283 Be 0.69346 0.35596 0.46489 0.0
O284 O 0.68817 0.39408 0.39583 0.0
O285 O 0.66762 0.33799 0.46127 0.0
O286 O 0.66763 0.33800 0.54258 0.0
O287 O 0.67895 0.40187 0.56079 0.0
O288 O 0.68821 0.39411 0.60814 0.0
H289 H 0.71058 0.38944 0.55859 0.0
H290 H 0.71056 0.38942 0.44557 0.0
O291 O 0.70633 0.34765 0.44323 0.0
O292 O 0.70461 0.36157 0.39591 0.0
H293 H 0.71124 0.35292 0.50210 0.0
H294 H 0.68473 0.40535 0.50197 0.0
O295 O 0.65597 0.36104 0.46121 0.0
O296 O 0.69782 0.37900 0.54827 0.0
O297 O 0.69780 0.37898 0.45579 0.0
O298 O 0.69967 0.35490 0.50205 0.0
O299 O 0.68135 0.39113 0.50196 0.0
C300 C 0.70921 0.35045 0.59241 0.0
C301 C 0.68209 0.40399 0.41163 0.0
C302 C 0.68212 0.40402 0.59228 0.0
C303 C 0.70917 0.35043 0.41177 0.0
C304 C 0.65267 0.34205 0.54596 0.0
C305 C 0.65265 0.34203 0.45776 0.0
C306 C 0.81072 0.33183 0.75286 0.0
C307 C 0.79552 0.33398 0.72885 0.0
C308 C 0.78030 0.33609 0.70485 0.0
C309 C 0.78403 0.35853 0.69737 0.0
C310 C 0.76881 0.36065 0.67336 0.0
C311 C 0.74984 0.34033 0.65688 0.0
C312 C 0.74611 0.31789 0.66436 0.0
C313 C 0.76134 0.31578 0.68834 0.0
C314 C 0.73463 0.34245 0.63287 0.0
C315 C 0.71939 0.34454 0.60887 0.0
H316 H 0.79806 0.37357 0.70960 0.0
H317 H 0.77159 0.37726 0.66779 0.0
H318 H 0.73207 0.30285 0.65214 0.0
H319 H 0.75858 0.29917 0.69388 0.0
C320 C 0.53893 0.22139 0.26785 0.0
C321 C 0.55377 0.23755 0.29472 0.0
C322 C 0.56862 0.25368 0.32159 0.0
C323 C 0.58229 0.27804 0.31380 0.0
C324 C 0.59713 0.29418 0.34068 0.0
C325 C 0.59832 0.28594 0.37534 0.0
C326 C 0.58465 0.26158 0.38313 0.0
C327 C 0.56980 0.24545 0.35626 0.0
C328 C 0.61316 0.30208 0.40222 0.0
C329 C 0.62800 0.31819 0.42911 0.0
H330 H 0.58143 0.28414 0.28814 0.0
H331 H 0.60724 0.31221 0.33493 0.0
H332 H 0.58553 0.25548 0.40879 0.0
H333 H 0.55967 0.22741 0.36203 0.0
C334 C 0.53899 0.22141 0.73493 0.0
C335 C 0.55382 0.23752 0.70814 0.0
C336 C 0.56866 0.25366 0.68138 0.0
C337 C 0.57232 0.24529 0.64852 0.0
C338 C 0.58715 0.26142 0.62176 0.0
C339 C 0.59835 0.28592 0.62788 0.0
C340 C 0.59469 0.29429 0.66073 0.0
C341 C 0.57984 0.27816 0.68748 0.0
C342 C 0.61319 0.30205 0.60111 0.0
C343 C 0.62803 0.31820 0.57438 0.0
H344 H 0.56405 0.22715 0.64401 0.0
H345 H 0.58984 0.25522 0.59742 0.0
H346 H 0.60298 0.31243 0.66525 0.0
H347 H 0.57713 0.28435 0.71180 0.0
C348 C 0.65472 0.50964 0.25676 0.0
C349 C 0.65862 0.49486 0.27899 0.0
C350 C 0.66253 0.48007 0.30119 0.0
C351 C 0.67518 0.48881 0.33397 0.0
C352 C 0.67908 0.47401 0.35618 0.0
C353 C 0.67036 0.45049 0.34558 0.0
C354 C 0.65771 0.44175 0.31280 0.0
C355 C 0.65379 0.45653 0.29061 0.0
C356 C 0.67426 0.43570 0.36779 0.0
C357 C 0.67816 0.42089 0.38996 0.0
H358 H 0.68166 0.50623 0.34180 0.0
H359 H 0.68842 0.48048 0.38046 0.0
H360 H 0.65124 0.42433 0.30497 0.0
H361 H 0.64442 0.45006 0.26635 0.0
C362 C 0.65476 0.50970 0.74685 0.0
C363 C 0.65864 0.49488 0.72471 0.0
C364 C 0.66254 0.48009 0.70256 0.0
C365 C 0.65336 0.45641 0.71269 0.0
C366 C 0.65726 0.44161 0.69053 0.0
C367 C 0.67036 0.45050 0.65827 0.0
C368 C 0.67954 0.47417 0.64814 0.0
C369 C 0.67563 0.48897 0.67028 0.0
C370 C 0.67426 0.43570 0.63611 0.0
C371 C 0.67818 0.42092 0.61394 0.0
H372 H 0.64368 0.44983 0.73659 0.0
H373 H 0.65045 0.42408 0.69801 0.0
H374 H 0.68924 0.48075 0.62424 0.0
H375 H 0.68242 0.50649 0.66277 0.0
C376 C 0.81069 0.33183 0.25224 0.0
C377 C 0.79545 0.33392 0.27612 0.0
C378 C 0.78023 0.33603 0.29998 0.0
C379 C 0.75870 0.31575 0.31047 0.0
C380 C 0.74348 0.31786 0.33434 0.0
C381 C 0.74977 0.34026 0.34769 0.0
C382 C 0.77129 0.36054 0.33720 0.0
C383 C 0.78653 0.35842 0.31335 0.0
C384 C 0.73454 0.34236 0.37156 0.0
C385 C 0.71933 0.34450 0.39542 0.0
H386 H 0.75403 0.29918 0.30056 0.0
H387 H 0.72756 0.30284 0.34214 0.0
H388 H 0.77595 0.37711 0.34709 0.0
H389 H 0.80246 0.37344 0.30560 0.0
C390 C 0.95354 0.10589 0.98901 0.0
C391 C 0.95516 0.12705 0.99647 0.0
C392 C 0.97144 0.14327 0.01409 0.0
C393 C 0.94074 0.13088 0.98461 0.0
H394 H 0.96281 0.10802 0.97032 0.0
H395 H 0.93879 0.09524 0.98249 0.0
H396 H 0.98186 0.14115 0.02332 0.0
H397 H 0.92903 0.12010 0.97264 0.0
C398 C 0.95875 0.16659 0.00704 0.0
C399 C 0.94247 0.15037 0.98942 0.0
C400 C 0.97318 0.16276 0.01890 0.0
C401 C 0.96037 0.18774 0.01450 0.0
H402 H 0.95111 0.18561 0.03319 0.0
H403 H 0.97512 0.19840 0.02102 0.0
H404 H 0.93205 0.15249 0.98019 0.0
H405 H 0.98489 0.17354 0.03087 0.0
C406 C 0.15153 0.06625 0.01607 0.0
C407 C 0.17155 0.06592 0.00759 0.0
C408 C 0.18501 0.07740 0.98250 0.0
C409 C 0.17720 0.05474 0.02572 0.0
H410 H 0.15580 0.07909 0.02910 0.0
H411 H 0.14214 0.05376 0.02976 0.0
H412 H 0.18149 0.08533 0.96876 0.0
H413 H 0.16830 0.04633 0.04307 0.0
C414 C 0.20936 0.06659 0.99463 0.0
C415 C 0.19589 0.05512 0.01972 0.0
C416 C 0.20371 0.07778 0.97651 0.0
C417 C 0.22937 0.06626 0.98616 0.0
H418 H 0.22511 0.05342 0.97312 0.0
H419 H 0.23876 0.07875 0.97246 0.0
H420 H 0.19942 0.04719 0.03346 0.0
H421 H 0.21260 0.08619 0.95916 0.0
C422 C 0.89657 0.89230 0.98552 0.0
C423 C 0.87453 0.87292 0.99404 0.0
C424 C 0.86637 0.86840 0.02505 0.0
C425 C 0.86176 0.85977 0.97061 0.0
H426 H 0.89546 0.90493 0.98371 0.0
H427 H 0.90087 0.88990 0.96397 0.0
H428 H 0.87498 0.87712 0.04248 0.0
H429 H 0.86673 0.86202 0.94885 0.0
C430 C 0.83308 0.83826 0.00840 0.0
C431 C 0.84125 0.84278 0.97739 0.0
C432 C 0.84586 0.85141 0.03183 0.0
C433 C 0.81105 0.81887 0.01693 0.0
H434 H 0.81215 0.80625 0.01874 0.0
H435 H 0.80675 0.82127 0.03848 0.0
H436 H 0.83264 0.83405 0.95997 0.0
H437 H 0.84088 0.84916 0.05360 0.0
