data_{}
_symmetry_space_group_name_H-M    P1
_symmetry_Int_Tables_number       1
_symmetry_cell_setting            triclinic
loop_
_symmetry_equiv_pos_as_xyz
'x, y, z'
_cell_length_a     80.111
_cell_length_b     80.447
_cell_length_c     36.828
_cell_angle_alpha  89.997
_cell_angle_beta   90.152
_cell_angle_gamma  120.140
loop_
_atom_site_label
_atom_site_type_symbol
_atom_site_fract_x
_atom_site_fract_y
_atom_site_fract_z
_atom_type_partial_charge
C0 C 0.03425 0.02284 0.00342 0.0
C1 C 0.01481 0.01567 0.00327 0.0
C2 C 0.99990 0.99569 0.00424 0.0
C3 C 0.98673 0.97812 0.00387 0.0
C4 C 0.97324 0.95908 0.00471 0.0
C5 C 0.97726 0.94476 0.99737 0.0
C6 C 0.96178 0.92526 0.99639 0.0
C7 C 0.94402 0.92221 0.00139 0.0
C8 C 0.94066 0.93622 0.00809 0.0
C9 C 0.95563 0.95480 0.00924 0.0
C10 C 0.00773 0.02890 0.00196 0.0
C11 C 0.02099 0.04962 0.00113 0.0
C12 C 0.01464 0.06278 0.99990 0.0
C13 C 0.00997 0.07444 0.99814 0.0
C14 C 0.00592 0.08983 0.00010 0.0
C15 C 0.98619 0.08306 0.99375 0.0
C16 C 0.98011 0.09799 0.99500 0.0
C17 C 0.99629 0.11825 0.00289 0.0
C18 C 0.01544 0.12266 0.00738 0.0
C19 C 0.01955 0.10811 0.00788 0.0
C20 C 0.04060 0.05539 0.00223 0.0
C21 C 0.04754 0.04168 0.00353 0.0
C22 C 0.06678 0.04815 0.00291 0.0
C23 C 0.08385 0.05397 0.00296 0.0
C24 C 0.10465 0.06030 0.00222 0.0
C25 C 0.11781 0.07817 0.00915 0.0
C26 C 0.13734 0.08462 0.00608 0.0
C27 C 0.14283 0.07070 0.00162 0.0
C28 C 0.12835 0.05200 0.99608 0.0
C29 C 0.11007 0.04627 0.99819 0.0
H30 H 0.03863 0.01409 0.00341 0.0
H31 H 0.98982 0.94764 0.99308 0.0
H32 H 0.96406 0.91517 0.99242 0.0
H33 H 0.92811 0.93357 0.01204 0.0
H34 H 0.95293 0.96462 0.01342 0.0
H35 H 0.99447 0.02418 0.00166 0.0
H36 H 0.97744 0.07017 0.98890 0.0
H37 H 0.96741 0.09501 0.99122 0.0
H38 H 0.02522 0.13534 0.00997 0.0
H39 H 0.03200 0.11090 0.01351 0.0
H40 H 0.04961 0.06846 0.00210 0.0
H41 H 0.11388 0.08677 0.01632 0.0
H42 H 0.14644 0.09764 0.00694 0.0
H43 H 0.13191 0.04293 0.99049 0.0
H44 H 0.10082 0.03328 0.99709 0.0
C45 C 0.87006 0.39020 0.76266 0.0
C46 C 0.85621 0.37253 0.78538 0.0
C47 C 0.86400 0.36669 0.81829 0.0
C48 C 0.85034 0.34901 0.84122 0.0
C49 C 0.85829 0.34326 0.87405 0.0
C50 C 0.87986 0.35517 0.88380 0.0
C51 C 0.89349 0.37286 0.86096 0.0
C52 C 0.88555 0.37861 0.82818 0.0
C53 C 0.87208 0.33406 0.93865 0.0
C54 C 0.88316 0.33301 0.97178 0.0
C55 C 0.89262 0.32049 0.97040 0.0
C56 C 0.90675 0.32241 0.00010 0.0
C57 C 0.90954 0.33498 0.03425 0.0
C58 C 0.89857 0.34607 0.03707 0.0
C59 C 0.88538 0.34511 0.00576 0.0
C60 C 0.87566 0.35745 0.00715 0.0
C61 C 0.88924 0.30734 0.93741 0.0
C62 C 0.92383 0.33695 0.06428 0.0
C63 C 0.91833 0.31201 0.99729 0.0
C64 C 0.95161 0.31885 0.98837 0.0
C65 C 0.94297 0.29713 0.99443 0.0
C66 C 0.95633 0.28856 0.99645 0.0
C67 C 0.97830 0.30171 0.99241 0.0
C68 C 0.98692 0.32342 0.98605 0.0
C69 C 0.97355 0.33199 0.98403 0.0
C70 C 0.99162 0.29310 0.99482 0.0
C71 C 0.98289 0.27139 0.00135 0.0
C72 C 0.90157 0.35901 0.07007 0.0
C73 C 0.88832 0.35786 0.13058 0.0
C74 C 0.90338 0.37941 0.13310 0.0
C75 C 0.90168 0.39182 0.16304 0.0
C76 C 0.88488 0.38264 0.19028 0.0
C77 C 0.86986 0.36108 0.18776 0.0
C78 C 0.87158 0.34867 0.15788 0.0
C79 C 0.88300 0.39501 0.22003 0.0
C80 C 0.86605 0.38572 0.24691 0.0
O81 O 0.88773 0.34978 0.91608 0.0
O82 O 0.88941 0.34590 0.10025 0.0
O83 O 0.93859 0.32732 0.98759 0.0
H84 H 0.88600 0.39889 0.77029 0.0
H85 H 0.84026 0.36381 0.77783 0.0
H86 H 0.83438 0.34020 0.83391 0.0
H87 H 0.84822 0.33020 0.89110 0.0
H88 H 0.90944 0.38169 0.86835 0.0
H89 H 0.89563 0.39168 0.81121 0.0
H90 H 0.86479 0.31985 0.92317 0.0
H91 H 0.86104 0.33824 0.94743 0.0
H92 H 0.88198 0.36806 0.03068 0.0
H93 H 0.85945 0.34781 0.01117 0.0
H94 H 0.87846 0.36568 0.98055 0.0
H95 H 0.88408 0.31248 0.91329 0.0
H96 H 0.87773 0.29199 0.94453 0.0
H97 H 0.90320 0.30764 0.93007 0.0
H98 H 0.92468 0.34757 0.08572 0.0
H99 H 0.93869 0.34241 0.05177 0.0
H100 H 0.91877 0.32234 0.07735 0.0
H101 H 0.91834 0.30516 0.02438 0.0
H102 H 0.91200 0.30060 0.97507 0.0
H103 H 0.92670 0.28743 0.99757 0.0
H104 H 0.94998 0.27248 0.00102 0.0
H105 H 0.00318 0.33314 0.98292 0.0
H106 H 0.97990 0.34808 0.97947 0.0
H107 H 0.00790 0.30276 0.99181 0.0
H108 H 0.96661 0.26176 0.00433 0.0
H109 H 0.91740 0.36732 0.07858 0.0
H110 H 0.89636 0.36947 0.06304 0.0
H111 H 0.91570 0.38618 0.11270 0.0
H112 H 0.91279 0.40779 0.16496 0.0
H113 H 0.85744 0.35433 0.20796 0.0
H114 H 0.86041 0.33274 0.15581 0.0
H115 H 0.89408 0.41098 0.22213 0.0
H116 H 0.85500 0.36974 0.24471 0.0
C117 C 0.54506 0.20383 0.24286 0.0
C118 C 0.54110 0.18616 0.22004 0.0
C119 C 0.52741 0.18031 0.18710 0.0
C120 C 0.52325 0.16264 0.16407 0.0
C121 C 0.50949 0.15687 0.13121 0.0
C122 C 0.49992 0.16878 0.12153 0.0
C123 C 0.50413 0.18647 0.14447 0.0
C124 C 0.51787 0.19222 0.17728 0.0
C125 C 0.48642 0.14767 0.06657 0.0
C126 C 0.47429 0.14662 0.03343 0.0
C127 C 0.45218 0.13409 0.03475 0.0
C128 C 0.43999 0.13600 0.00450 0.0
C129 C 0.44987 0.14857 0.97098 0.0
C130 C 0.47204 0.15967 0.96821 0.0
C131 C 0.48425 0.15872 0.99990 0.0
C132 C 0.50642 0.17106 0.99819 0.0
C133 C 0.44231 0.12094 0.06767 0.0
C134 C 0.43756 0.15053 0.94096 0.0
C135 C 0.41792 0.12560 0.00782 0.0
C136 C 0.39154 0.13243 0.01678 0.0
C137 C 0.37828 0.11071 0.01061 0.0
C138 C 0.35627 0.10213 0.00854 0.0
C139 C 0.34756 0.11528 0.01265 0.0
C140 C 0.36083 0.13699 0.01914 0.0
C141 C 0.38284 0.14557 0.02120 0.0
C142 C 0.32555 0.10665 0.01021 0.0
C143 C 0.31239 0.08495 0.00356 0.0
C144 C 0.48208 0.17261 0.93528 0.0
C145 C 0.49416 0.17146 0.87477 0.0
C146 C 0.50082 0.19301 0.87236 0.0
C147 C 0.51503 0.20542 0.84249 0.0
C148 C 0.52258 0.19625 0.81520 0.0
C149 C 0.51586 0.17469 0.81760 0.0
C150 C 0.50163 0.16228 0.84741 0.0
C151 C 0.53693 0.20861 0.78551 0.0
C152 C 0.54451 0.19933 0.75858 0.0
O153 O 0.48662 0.16339 0.08922 0.0
O154 O 0.48101 0.15950 0.90504 0.0
O155 O 0.41310 0.14090 0.01761 0.0
H156 H 0.53788 0.21251 0.23527 0.0
H157 H 0.54825 0.17744 0.22754 0.0
H158 H 0.53033 0.15383 0.17133 0.0
H159 H 0.50640 0.14382 0.11409 0.0
H160 H 0.49708 0.19530 0.13713 0.0
H161 H 0.52097 0.20530 0.19432 0.0
H162 H 0.47939 0.13346 0.08197 0.0
H163 H 0.50167 0.15185 0.05781 0.0
H164 H 0.51079 0.18167 0.97472 0.0
H165 H 0.51291 0.16142 0.99411 0.0
H166 H 0.51192 0.17929 0.02484 0.0
H167 H 0.45266 0.12609 0.09181 0.0
H168 H 0.43835 0.10559 0.06046 0.0
H169 H 0.42866 0.12123 0.07501 0.0
H170 H 0.44742 0.16116 0.91958 0.0
H171 H 0.42821 0.15599 0.95351 0.0
H172 H 0.42789 0.13592 0.92782 0.0
H173 H 0.41100 0.11874 0.98069 0.0
H174 H 0.41275 0.11418 0.02997 0.0
H175 H 0.38477 0.10101 0.00741 0.0
H176 H 0.34642 0.08605 0.00388 0.0
H177 H 0.35437 0.14670 0.02232 0.0
H178 H 0.39271 0.16165 0.02584 0.0
H179 H 0.31902 0.11632 0.01327 0.0
H180 H 0.31897 0.07532 0.00010 0.0
H181 H 0.47462 0.18092 0.92683 0.0
H182 H 0.49783 0.18307 0.94237 0.0
H183 H 0.49533 0.19977 0.89281 0.0
H184 H 0.52003 0.22139 0.84066 0.0
H185 H 0.52148 0.16794 0.79736 0.0
H186 H 0.49674 0.14634 0.84940 0.0
H187 H 0.54196 0.22459 0.78351 0.0
H188 H 0.53945 0.18335 0.76069 0.0
C189 C 0.67139 0.52328 0.76150 0.0
C190 C 0.68917 0.52737 0.78440 0.0
C191 C 0.69494 0.54099 0.81730 0.0
C192 C 0.71274 0.54528 0.84041 0.0
C193 C 0.71842 0.55897 0.87322 0.0
C194 C 0.70632 0.56834 0.88278 0.0
C195 C 0.68851 0.56399 0.85976 0.0
C196 C 0.68283 0.55033 0.82700 0.0
C197 C 0.72748 0.58191 0.93779 0.0
C198 C 0.72842 0.59394 0.97087 0.0
C199 C 0.74086 0.61597 0.96950 0.0
C200 C 0.73881 0.62803 0.99990 0.0
C201 C 0.72622 0.61811 0.03317 0.0
C202 C 0.71523 0.59604 0.03599 0.0
C203 C 0.71631 0.58395 0.00476 0.0
C204 C 0.70406 0.56186 0.00614 0.0
C205 C 0.75403 0.62588 0.93660 0.0
C206 C 0.72412 0.63029 0.06310 0.0
C207 C 0.74910 0.65000 0.99629 0.0
C208 C 0.74195 0.67608 0.98714 0.0
C209 C 0.76374 0.68943 0.99337 0.0
C210 C 0.77219 0.71132 0.99536 0.0
C211 C 0.75884 0.71983 0.99112 0.0
C212 C 0.73706 0.70647 0.98458 0.0
C213 C 0.72861 0.68457 0.98259 0.0
C214 C 0.76732 0.74172 0.99349 0.0
C215 C 0.78910 0.75497 0.00010 0.0
C216 C 0.70226 0.58597 0.06890 0.0
C217 C 0.70354 0.57400 0.12949 0.0
C218 C 0.68187 0.56719 0.13181 0.0
C219 C 0.66948 0.55298 0.16168 0.0
C220 C 0.67880 0.54559 0.18907 0.0
C221 C 0.70049 0.55245 0.18676 0.0
C222 C 0.71288 0.56667 0.15694 0.0
C223 C 0.66646 0.53124 0.21877 0.0
C224 C 0.67590 0.52382 0.24580 0.0
O225 O 0.71163 0.58157 0.91505 0.0
O226 O 0.71548 0.58714 0.09922 0.0
O227 O 0.73360 0.65463 0.98638 0.0
H228 H 0.66256 0.53031 0.76899 0.0
H229 H 0.69804 0.52037 0.77699 0.0
H230 H 0.72169 0.53835 0.83324 0.0
H231 H 0.73156 0.56215 0.89041 0.0
H232 H 0.67953 0.57090 0.86700 0.0
H233 H 0.66967 0.54713 0.80989 0.0
H234 H 0.74175 0.58902 0.92244 0.0
H235 H 0.72341 0.56676 0.94661 0.0
H236 H 0.69341 0.55742 0.02958 0.0
H237 H 0.71386 0.55553 0.01031 0.0
H238 H 0.69582 0.55634 0.97948 0.0
H239 H 0.74894 0.61558 0.91249 0.0
H240 H 0.76948 0.62995 0.94388 0.0
H241 H 0.75361 0.63941 0.92918 0.0
H242 H 0.71349 0.62042 0.08448 0.0
H243 H 0.71852 0.63951 0.05047 0.0
H244 H 0.73877 0.64002 0.07629 0.0
H245 H 0.75595 0.65692 0.02342 0.0
H246 H 0.76056 0.65523 0.97417 0.0
H247 H 0.77358 0.68309 0.99666 0.0
H248 H 0.78831 0.72124 0.00010 0.0
H249 H 0.72719 0.71278 0.98130 0.0
H250 H 0.71247 0.67464 0.97791 0.0
H251 H 0.75751 0.74810 0.99034 0.0
H252 H 0.79887 0.74854 0.00332 0.0
H253 H 0.69382 0.59327 0.07727 0.0
H254 H 0.69186 0.57025 0.06184 0.0
H255 H 0.67499 0.57257 0.11129 0.0
H256 H 0.65341 0.54788 0.16345 0.0
H257 H 0.70735 0.54695 0.20708 0.0
H258 H 0.72891 0.57168 0.15503 0.0
H259 H 0.65039 0.52611 0.22071 0.0
H260 H 0.69198 0.52899 0.24375 0.0
C261 C 0.66669 0.34188 0.55281 0.0
Co262 Co 0.67380 0.37227 0.50255 0.0
Co263 Co 0.72019 0.39589 0.50278 0.0
C264 C 0.72798 0.37308 0.55312 0.0
Co265 Co 0.69742 0.34969 0.50269 0.0
C266 C 0.69678 0.40291 0.55294 0.0
O267 O 0.66338 0.35355 0.46427 0.0
O268 O 0.71180 0.40621 0.46450 0.0
O269 O 0.71621 0.35808 0.46455 0.0
O270 O 0.67866 0.33897 0.54083 0.0
O271 O 0.73094 0.38794 0.54108 0.0
O272 O 0.68184 0.39096 0.54082 0.0
O273 O 0.66340 0.35356 0.54074 0.0
O274 O 0.71182 0.40622 0.54097 0.0
O275 O 0.71622 0.35809 0.54102 0.0
O276 O 0.67865 0.33895 0.46436 0.0
O277 O 0.73093 0.38793 0.46461 0.0
O278 O 0.68182 0.39095 0.46435 0.0
C279 C 0.66667 0.34186 0.45225 0.0
C280 C 0.69676 0.40290 0.45238 0.0
C281 C 0.72796 0.37307 0.45256 0.0
C282 C 0.76592 0.38410 0.64719 0.0
C283 C 0.78025 0.37849 0.63167 0.0
C284 C 0.77696 0.36953 0.59352 0.0
C285 C 0.75934 0.36617 0.57087 0.0
C286 C 0.85084 0.39181 0.72173 0.0
C287 C 0.74830 0.38074 0.62453 0.0
C288 C 0.79788 0.38184 0.65427 0.0
C289 C 0.81552 0.38518 0.67681 0.0
C290 C 0.83317 0.38850 0.69929 0.0
C291 C 0.74501 0.37178 0.58638 0.0
H292 H 0.76835 0.39074 0.67543 0.0
H293 H 0.78756 0.36537 0.58203 0.0
H294 H 0.75691 0.35954 0.54262 0.0
H295 H 0.73769 0.38489 0.63602 0.0
C296 C 0.64385 0.30228 0.36496 0.0
C297 C 0.62216 0.29148 0.37401 0.0
C298 C 0.61461 0.29824 0.40586 0.0
C299 C 0.62874 0.31580 0.42865 0.0
C300 C 0.56536 0.22118 0.28321 0.0
C301 C 0.65797 0.31985 0.38776 0.0
C302 C 0.60801 0.27391 0.35125 0.0
C303 C 0.59382 0.25634 0.32854 0.0
C304 C 0.57960 0.23876 0.30585 0.0
C305 C 0.65042 0.32661 0.41960 0.0
H306 H 0.64944 0.29728 0.34138 0.0
H307 H 0.59856 0.29024 0.41257 0.0
H308 H 0.62314 0.32080 0.45221 0.0
H309 H 0.67403 0.32785 0.38106 0.0
C310 C 0.61562 0.30530 0.61494 0.0
C311 C 0.62194 0.29151 0.63033 0.0
C312 C 0.64248 0.29528 0.62316 0.0
C313 C 0.65671 0.31283 0.60062 0.0
C314 C 0.56530 0.22119 0.72061 0.0
C315 C 0.62985 0.32286 0.59240 0.0
C316 C 0.60774 0.27395 0.65288 0.0
C317 C 0.59357 0.25637 0.67544 0.0
C318 C 0.57942 0.23879 0.69803 0.0
C319 C 0.65039 0.32663 0.58524 0.0
H320 H 0.60041 0.30252 0.62025 0.0
H321 H 0.64716 0.28507 0.63454 0.0
H322 H 0.67191 0.31562 0.59533 0.0
H323 H 0.62517 0.33307 0.58101 0.0
C324 C 0.70444 0.44466 0.36353 0.0
C325 C 0.68749 0.44759 0.37392 0.0
C326 C 0.67468 0.43680 0.40665 0.0
C327 C 0.67882 0.42308 0.42898 0.0
C328 C 0.67067 0.50243 0.28501 0.0
C329 C 0.70858 0.43093 0.38587 0.0
C330 C 0.68333 0.46131 0.35162 0.0
C331 C 0.67914 0.47502 0.32938 0.0
C332 C 0.67492 0.48873 0.30718 0.0
C333 C 0.69576 0.42014 0.41859 0.0
H334 H 0.71393 0.45265 0.33930 0.0
H335 H 0.66213 0.43897 0.41434 0.0
H336 H 0.66933 0.41509 0.45321 0.0
H337 H 0.72112 0.42875 0.37817 0.0
C338 C 0.70262 0.44254 0.64479 0.0
C339 C 0.68750 0.44761 0.63131 0.0
C340 C 0.67654 0.43896 0.59555 0.0
C341 C 0.68067 0.42524 0.57326 0.0
C342 C 0.67069 0.50245 0.72003 0.0
C343 C 0.70676 0.42882 0.62249 0.0
C344 C 0.68334 0.46133 0.65357 0.0
C345 C 0.67915 0.47504 0.67576 0.0
C346 C 0.67493 0.48875 0.69791 0.0
C347 C 0.69578 0.42017 0.58673 0.0
H348 H 0.71074 0.44895 0.67126 0.0
H349 H 0.66535 0.44271 0.58557 0.0
H350 H 0.67254 0.41883 0.54679 0.0
H351 H 0.71795 0.42507 0.63246 0.0
C352 C 0.77913 0.37355 0.41580 0.0
C353 C 0.78034 0.37840 0.37510 0.0
C354 C 0.76388 0.37991 0.35666 0.0
C355 C 0.74621 0.37659 0.37891 0.0
C356 C 0.85086 0.39179 0.28553 0.0
C357 C 0.76146 0.37022 0.43805 0.0
C358 C 0.79799 0.38173 0.35280 0.0
C359 C 0.81562 0.38508 0.33043 0.0
C360 C 0.83325 0.38843 0.30801 0.0
C361 C 0.74500 0.37174 0.41960 0.0
H362 H 0.79131 0.37243 0.42946 0.0
H363 H 0.76476 0.38350 0.32653 0.0
H364 H 0.73404 0.37772 0.36524 0.0
H365 H 0.76057 0.36663 0.46818 0.0
C366 C 0.99325 0.17788 0.00239 0.0
C367 C 0.98334 0.18111 0.03522 0.0
C368 C 0.98313 0.20014 0.03537 0.0
C369 C 0.99284 0.21345 0.00266 0.0
C370 C 0.98272 0.20004 0.97014 0.0
C371 C 0.98294 0.18101 0.96999 0.0
C372 C 0.01318 0.19634 0.00213 0.0
C373 C 0.01295 0.21536 0.00227 0.0
C374 C 0.99348 0.15886 0.00227 0.0
C375 C 0.99372 0.13983 0.00220 0.0
C376 C 0.99262 0.23248 0.00282 0.0
C377 C 0.99242 0.25153 0.00301 0.0
H378 H 0.97676 0.16975 0.05741 0.0
H379 H 0.97607 0.20360 0.05876 0.0
H380 H 0.97569 0.20448 0.94815 0.0
H381 H 0.97576 0.17031 0.94684 0.0
H382 H 0.02687 0.19532 0.00186 0.0
H383 H 0.02712 0.22966 0.00210 0.0
C384 C 0.20717 0.07580 0.00182 0.0
C385 C 0.20690 0.05782 0.98668 0.0
C386 C 0.22645 0.05848 0.98667 0.0
C387 C 0.24369 0.07702 0.00184 0.0
C388 C 0.23630 0.07894 0.03928 0.0
C389 C 0.21676 0.07829 0.03927 0.0
C390 C 0.22332 0.09213 0.97954 0.0
C391 C 0.24286 0.09278 0.97956 0.0
C392 C 0.18763 0.07515 0.00178 0.0
C393 C 0.16808 0.07449 0.00171 0.0
C394 C 0.26323 0.07767 0.00182 0.0
C395 C 0.28278 0.07832 0.00177 0.0
H396 H 0.19281 0.04515 0.97640 0.0
H397 H 0.22745 0.04573 0.97587 0.0
H398 H 0.24519 0.08071 0.06471 0.0
H399 H 0.21031 0.07962 0.06591 0.0
H400 H 0.22038 0.10276 0.96440 0.0
H401 H 0.25555 0.10445 0.96370 0.0
C402 C 0.88410 0.85931 0.00190 0.0
C403 C 0.86840 0.85827 0.02740 0.0
C404 C 0.84917 0.83906 0.02740 0.0
C405 C 0.84817 0.82339 0.00194 0.0
C406 C 0.86613 0.82231 0.01322 0.0
C407 C 0.88535 0.84153 0.01319 0.0
C408 C 0.87349 0.85307 0.96514 0.0
C409 C 0.85427 0.83386 0.96517 0.0
C410 C 0.90332 0.87853 0.00186 0.0
C411 C 0.92253 0.89777 0.00183 0.0
C412 C 0.82893 0.80418 0.00196 0.0
C413 C 0.80969 0.78498 0.00195 0.0
H414 H 0.87143 0.87124 0.04471 0.0
H415 H 0.83682 0.83715 0.04554 0.0
H416 H 0.86464 0.80790 0.02089 0.0
H417 H 0.89931 0.84193 0.02121 0.0
H418 H 0.87997 0.86252 0.94017 0.0
H419 H 0.84554 0.82825 0.93902 0.0
