data_{}
_symmetry_space_group_name_H-M    P1
_symmetry_Int_Tables_number       1
_symmetry_cell_setting            triclinic
loop_
_symmetry_equiv_pos_as_xyz
'x, y, z'
_cell_length_a     82.685
_cell_length_b     82.669
_cell_length_c     35.348
_cell_angle_alpha  90.135
_cell_angle_beta   90.118
_cell_angle_gamma  70.356
loop_
_atom_site_label
_atom_site_type_symbol
_atom_site_fract_x
_atom_site_fract_y
_atom_site_fract_z
_atom_type_partial_charge
H0 H 0.02124 0.47011 0.95153 0.0
H1 H 0.00715 0.46088 0.90416 0.0
H2 H 0.97320 0.50733 0.90398 0.0
H3 H 0.98609 0.51354 0.95633 0.0
H4 H 0.01795 0.53112 0.95181 0.0
H5 H 0.03202 0.54034 0.90463 0.0
H6 H 0.06598 0.49390 0.90426 0.0
H7 H 0.05311 0.48770 0.95646 0.0
H8 H 0.05700 0.49245 0.03529 0.0
H9 H 0.07267 0.50127 0.07836 0.0
H10 H 0.02869 0.53458 0.11848 0.0
H11 H 0.01468 0.52484 0.07270 0.0
H12 H 0.03487 0.46196 0.01937 0.0
H13 H 0.98221 0.50880 0.03508 0.0
H14 H 0.96656 0.49999 0.07796 0.0
H15 H 0.01056 0.46668 0.11809 0.0
H16 H 0.02455 0.47642 0.07251 0.0
H17 H 0.00434 0.53929 0.01962 0.0
C18 C 0.01082 0.47767 0.94287 0.0
C19 C 0.00250 0.47195 0.91389 0.0
C20 C 0.98767 0.48284 0.90059 0.0
C21 C 0.98253 0.49888 0.91474 0.0
C22 C 0.99096 0.50282 0.94499 0.0
C23 C 0.02837 0.52357 0.94315 0.0
C24 C 0.03668 0.52928 0.91429 0.0
C25 C 0.05151 0.51838 0.90100 0.0
C26 C 0.05665 0.50235 0.91504 0.0
C27 C 0.04822 0.49841 0.94518 0.0
C28 C 0.05126 0.50125 0.05187 0.0
C29 C 0.06079 0.50635 0.07779 0.0
C30 C 0.05247 0.51928 0.10342 0.0
C31 C 0.03484 0.52614 0.10157 0.0
C32 C 0.02659 0.52006 0.07378 0.0
C33 C 0.98796 0.50000 0.05163 0.0
C34 C 0.97844 0.49491 0.07742 0.0
C35 C 0.98677 0.48198 0.10299 0.0
C36 C 0.00440 0.47512 0.10122 0.0
C37 C 0.01264 0.48119 0.07355 0.0
S38 S 0.04095 0.47167 0.00472 0.0
S39 S 0.99826 0.52958 0.00483 0.0
N40 N 0.00504 0.49276 0.95860 0.0
N41 N 0.03415 0.50847 0.95878 0.0
N42 N 0.03406 0.50812 0.04864 0.0
N43 N 0.00516 0.49313 0.04846 0.0
Co44 Co 0.01960 0.50062 0.00381 0.0
H45 H 0.54127 0.97647 0.95171 0.0
H46 H 0.53423 0.96075 0.90433 0.0
H47 H 0.48830 0.99565 0.90403 0.0
H48 H 0.49569 0.00766 0.95638 0.0
H49 H 0.51302 0.03972 0.95187 0.0
H50 H 0.52005 0.05542 0.90469 0.0
H51 H 0.56598 0.02052 0.90444 0.0
H52 H 0.55860 0.00853 0.95664 0.0
H53 H 0.55962 0.01521 0.03546 0.0
H54 H 0.56807 0.03116 0.07854 0.0
H55 H 0.51989 0.04792 0.11855 0.0
H56 H 0.51312 0.03169 0.07277 0.0
H57 H 0.55529 0.97357 0.01957 0.0
H58 H 0.49468 0.00101 0.03514 0.0
H59 H 0.48624 0.98508 0.07801 0.0
H60 H 0.53443 0.96833 0.11826 0.0
H61 H 0.54119 0.98455 0.07267 0.0
H62 H 0.49901 0.04264 0.01965 0.0
C63 C 0.53000 0.98008 0.94301 0.0
C64 C 0.52595 0.97051 0.91403 0.0
C65 C 0.50985 0.97580 0.90070 0.0
C66 C 0.49910 0.99063 0.91482 0.0
C67 C 0.50399 0.99836 0.94506 0.0
C68 C 0.52429 0.03611 0.94324 0.0
C69 C 0.52833 0.04566 0.91437 0.0
C70 C 0.54443 0.04037 0.90112 0.0
C71 C 0.55518 0.02555 0.91520 0.0
C72 C 0.55029 0.01783 0.94533 0.0
C73 C 0.55146 0.02211 0.05202 0.0
C74 C 0.55671 0.03153 0.07794 0.0
C75 C 0.54480 0.04173 0.10354 0.0
C76 C 0.52822 0.04156 0.10166 0.0
C77 C 0.52438 0.03165 0.07387 0.0
C78 C 0.50285 0.99411 0.05171 0.0
C79 C 0.49760 0.98470 0.07750 0.0
C80 C 0.50952 0.97452 0.10310 0.0
C81 C 0.52609 0.97468 0.10136 0.0
C82 C 0.52993 0.98459 0.07369 0.0
S83 S 0.55591 0.98642 0.00491 0.0
S84 S 0.49838 0.02979 0.00487 0.0
N85 N 0.51916 0.99364 0.95871 0.0
N86 N 0.53513 0.02256 0.95890 0.0
N87 N 0.53521 0.02215 0.04876 0.0
N88 N 0.51909 0.99408 0.04857 0.0
Co89 Co 0.52715 0.00810 0.00392 0.0
N90 N 0.54530 0.50620 0.48373 0.0
Cd91 Cd 0.51636 0.51136 0.50261 0.0
N92 N 0.48647 0.51742 0.50042 0.0
H93 H 0.50468 0.47726 0.48316 0.0
H94 H 0.53806 0.48326 0.56174 0.0
H95 H 0.51406 0.44692 0.49800 0.0
H96 H 0.54682 0.45438 0.57775 0.0
H97 H 0.52510 0.54271 0.46348 0.0
H98 H 0.49454 0.54445 0.54585 0.0
H99 H 0.52203 0.57190 0.47431 0.0
H100 H 0.49173 0.57261 0.55905 0.0
H101 H 0.55041 0.52310 0.52212 0.0
H102 H 0.54453 0.48962 0.44363 0.0
H103 H 0.58077 0.51372 0.50741 0.0
H104 H 0.57342 0.48086 0.42774 0.0
H105 H 0.48499 0.50263 0.54167 0.0
H106 H 0.48332 0.53312 0.45920 0.0
H107 H 0.45583 0.50567 0.53074 0.0
H108 H 0.45518 0.53589 0.44590 0.0
C109 C 0.51480 0.47199 0.50413 0.0
C110 C 0.53286 0.47560 0.54891 0.0
C111 C 0.51934 0.45466 0.51194 0.0
C112 C 0.53817 0.45837 0.55830 0.0
C113 C 0.53157 0.44743 0.53897 0.0
C114 C 0.51800 0.54956 0.48289 0.0
C115 C 0.50013 0.55046 0.53213 0.0
C116 C 0.51637 0.56655 0.48831 0.0
C117 C 0.49801 0.56734 0.53933 0.0
C118 C 0.50663 0.57572 0.51776 0.0
C119 C 0.55572 0.51296 0.50121 0.0
C120 C 0.55217 0.49484 0.45647 0.0
C121 C 0.57305 0.50842 0.49347 0.0
C122 C 0.56940 0.48954 0.44715 0.0
C123 C 0.58032 0.49617 0.46650 0.0
C124 C 0.47816 0.50971 0.52222 0.0
C125 C 0.47729 0.52754 0.47292 0.0
C126 C 0.46118 0.51132 0.51674 0.0
C127 C 0.46043 0.52964 0.46566 0.0
C128 C 0.45204 0.52102 0.48723 0.0
N129 N 0.52152 0.48243 0.52159 0.0
N130 N 0.51028 0.54127 0.50468 0.0
C131 C 0.09506 0.57914 0.25065 0.0
C132 C 0.10407 0.56300 0.27437 0.0
C133 C 0.11509 0.56424 0.30869 0.0
C134 C 0.12423 0.54820 0.33263 0.0
C135 C 0.13526 0.54957 0.36686 0.0
C136 C 0.13714 0.56696 0.37701 0.0
C137 C 0.12796 0.58300 0.35317 0.0
C138 C 0.11695 0.58163 0.31899 0.0
C139 C 0.15359 0.55234 0.43422 0.0
C140 C 0.16185 0.55772 0.46877 0.0
C141 C 0.18079 0.55654 0.46738 0.0
C142 C 0.18800 0.56501 0.49894 0.0
C143 C 0.17698 0.57273 0.53388 0.0
C144 C 0.15852 0.57240 0.53677 0.0
C145 C 0.15094 0.56491 0.50412 0.0
C146 C 0.13203 0.56586 0.50551 0.0
C147 C 0.19201 0.54821 0.43305 0.0
C148 C 0.18426 0.58132 0.56519 0.0
C149 C 0.20614 0.56600 0.49548 0.0
C150 C 0.22081 0.58711 0.48621 0.0
C151 C 0.23735 0.57173 0.49259 0.0
C152 C 0.25479 0.57458 0.49475 0.0
C153 C 0.25566 0.59280 0.49053 0.0
C154 C 0.23912 0.60817 0.48383 0.0
C155 C 0.22168 0.60531 0.48168 0.0
C156 C 0.27311 0.59561 0.49309 0.0
C157 C 0.28957 0.58019 0.49995 0.0
C158 C 0.14726 0.58042 0.57111 0.0
C159 C 0.13980 0.57280 0.63413 0.0
C160 C 0.12762 0.59151 0.63671 0.0
C161 C 0.11384 0.59677 0.66785 0.0
C162 C 0.11227 0.58328 0.69624 0.0
C163 C 0.12449 0.56458 0.69367 0.0
C164 C 0.13828 0.55933 0.66258 0.0
C165 C 0.09841 0.58841 0.72719 0.0
C166 C 0.09686 0.57478 0.75520 0.0
O167 O 0.14774 0.56847 0.41068 0.0
O168 O 0.15272 0.56745 0.60257 0.0
O169 O 0.20370 0.58439 0.48535 0.0
H170 H 0.09657 0.59194 0.25860 0.0
H171 H 0.10260 0.55018 0.26651 0.0
H172 H 0.12284 0.53533 0.32501 0.0
H173 H 0.14202 0.53773 0.38466 0.0
H174 H 0.12932 0.59587 0.36086 0.0
H175 H 0.11017 0.59348 0.30128 0.0
H176 H 0.16334 0.54141 0.41814 0.0
H177 H 0.14214 0.54854 0.44334 0.0
H178 H 0.12531 0.57449 0.53000 0.0
H179 H 0.13133 0.55245 0.50971 0.0
H180 H 0.12547 0.57143 0.47777 0.0
H181 H 0.18342 0.54802 0.40790 0.0
H182 H 0.20018 0.53447 0.44052 0.0
H183 H 0.20079 0.55578 0.42543 0.0
H184 H 0.17397 0.58704 0.58749 0.0
H185 H 0.18835 0.59193 0.55216 0.0
H186 H 0.19587 0.57137 0.57885 0.0
H187 H 0.21313 0.56261 0.52373 0.0
H188 H 0.21368 0.55697 0.47236 0.0
H189 H 0.23666 0.55826 0.49587 0.0
H190 H 0.26705 0.56322 0.49956 0.0
H191 H 0.23978 0.62165 0.48057 0.0
H192 H 0.20940 0.61668 0.47688 0.0
H193 H 0.27383 0.60907 0.48995 0.0
H194 H 0.28880 0.56675 0.50307 0.0
H195 H 0.14908 0.59297 0.57996 0.0
H196 H 0.13321 0.58284 0.56373 0.0
H197 H 0.12873 0.60143 0.61544 0.0
H198 H 0.10477 0.61061 0.66981 0.0
H199 H 0.12329 0.55462 0.71472 0.0
H200 H 0.14727 0.54548 0.66047 0.0
H201 H 0.08932 0.60224 0.72933 0.0
H202 H 0.10598 0.56097 0.75295 0.0
C203 C 0.60246 0.08667 0.25077 0.0
C204 C 0.61860 0.08483 0.27459 0.0
C205 C 0.61735 0.09669 0.30891 0.0
C206 C 0.63339 0.09505 0.33296 0.0
C207 C 0.63202 0.10701 0.36719 0.0
C208 C 0.61463 0.12058 0.37722 0.0
C209 C 0.59860 0.12217 0.35327 0.0
C210 C 0.59997 0.11024 0.31909 0.0
C211 C 0.62925 0.12721 0.43453 0.0
C212 C 0.62387 0.13909 0.46904 0.0
C213 C 0.62505 0.15724 0.46767 0.0
C214 C 0.61657 0.17015 0.49917 0.0
C215 C 0.60885 0.16432 0.53406 0.0
C216 C 0.60919 0.14564 0.53694 0.0
C217 C 0.61668 0.13301 0.50435 0.0
C218 C 0.61573 0.11474 0.50573 0.0
C219 C 0.63337 0.16286 0.43340 0.0
C220 C 0.60027 0.17738 0.56531 0.0
C221 C 0.61557 0.18897 0.49571 0.0
C222 C 0.59447 0.21783 0.48630 0.0
C223 C 0.60984 0.22403 0.49279 0.0
C224 C 0.60699 0.24339 0.49493 0.0
C225 C 0.58877 0.25651 0.49059 0.0
C226 C 0.57341 0.25029 0.48378 0.0
C227 C 0.57627 0.23093 0.48165 0.0
C228 C 0.58595 0.27585 0.49313 0.0
C229 C 0.60137 0.28196 0.50011 0.0
C230 C 0.60117 0.13977 0.57123 0.0
C231 C 0.60879 0.12719 0.63430 0.0
C232 C 0.59008 0.12758 0.63675 0.0
C233 C 0.58483 0.11733 0.66785 0.0
C234 C 0.59832 0.10669 0.69633 0.0
C235 C 0.61702 0.10635 0.69389 0.0
C236 C 0.62226 0.11662 0.66284 0.0
C237 C 0.59319 0.09629 0.72724 0.0
C238 C 0.60682 0.08558 0.75535 0.0
O239 O 0.61312 0.13220 0.41088 0.0
O240 O 0.61414 0.13651 0.60278 0.0
O241 O 0.59719 0.19888 0.48545 0.0
H242 H 0.58967 0.09677 0.25863 0.0
H243 H 0.63142 0.07475 0.26682 0.0
H244 H 0.64626 0.08501 0.32543 0.0
H245 H 0.64386 0.10581 0.38507 0.0
H246 H 0.58572 0.13219 0.36087 0.0
H247 H 0.58812 0.11142 0.30130 0.0
H248 H 0.64017 0.12962 0.41852 0.0
H249 H 0.63305 0.11321 0.44367 0.0
H250 H 0.60711 0.11382 0.53015 0.0
H251 H 0.62915 0.10502 0.51002 0.0
H252 H 0.61016 0.11192 0.47795 0.0
H253 H 0.63356 0.15414 0.40825 0.0
H254 H 0.64711 0.16179 0.44096 0.0
H255 H 0.62580 0.17673 0.42573 0.0
H256 H 0.59455 0.17093 0.58757 0.0
H257 H 0.58965 0.18861 0.55221 0.0
H258 H 0.61021 0.18230 0.57904 0.0
H259 H 0.61897 0.19367 0.52398 0.0
H260 H 0.62461 0.19043 0.47265 0.0
H261 H 0.62331 0.21429 0.49616 0.0
H262 H 0.61835 0.24802 0.49982 0.0
H263 H 0.55993 0.26001 0.48043 0.0
H264 H 0.56491 0.22628 0.47677 0.0
H265 H 0.57249 0.28563 0.48990 0.0
H266 H 0.61481 0.27215 0.50331 0.0
H267 H 0.58862 0.15003 0.58000 0.0
H268 H 0.59875 0.12734 0.56383 0.0
H269 H 0.58017 0.13535 0.61541 0.0
H270 H 0.57100 0.11757 0.66971 0.0
H271 H 0.62698 0.09846 0.71500 0.0
H272 H 0.63611 0.11630 0.66082 0.0
H273 H 0.57937 0.09649 0.72929 0.0
H274 H 0.62063 0.08541 0.75319 0.0
C275 C 0.94119 0.42524 0.75146 0.0
C276 C 0.94302 0.40910 0.72763 0.0
C277 C 0.93115 0.41035 0.69336 0.0
C278 C 0.93277 0.39431 0.66931 0.0
C279 C 0.92080 0.39568 0.63512 0.0
C280 C 0.90723 0.41307 0.62513 0.0
C281 C 0.90564 0.42910 0.64908 0.0
C282 C 0.91760 0.42773 0.68322 0.0
C283 C 0.90057 0.39845 0.56784 0.0
C284 C 0.88868 0.40383 0.53337 0.0
C285 C 0.87053 0.40265 0.53480 0.0
C286 C 0.85761 0.41112 0.50335 0.0
C287 C 0.86341 0.41885 0.46844 0.0
C288 C 0.88209 0.41851 0.46549 0.0
C289 C 0.89473 0.41102 0.49804 0.0
C290 C 0.91300 0.41197 0.49660 0.0
C291 C 0.86493 0.39432 0.56909 0.0
C292 C 0.85035 0.42743 0.43723 0.0
C293 C 0.83880 0.41212 0.50687 0.0
C294 C 0.80995 0.43323 0.51637 0.0
C295 C 0.80374 0.41785 0.50991 0.0
C296 C 0.78438 0.42071 0.50783 0.0
C297 C 0.77127 0.43893 0.51221 0.0
C298 C 0.77749 0.45429 0.51900 0.0
C299 C 0.79685 0.45143 0.52107 0.0
C300 C 0.75193 0.44174 0.50974 0.0
C301 C 0.74582 0.42632 0.50279 0.0
C302 C 0.88794 0.42654 0.43118 0.0
C303 C 0.90049 0.41891 0.36807 0.0
C304 C 0.90010 0.43762 0.36562 0.0
C305 C 0.91032 0.44288 0.33448 0.0
C306 C 0.92095 0.42938 0.30597 0.0
C307 C 0.92129 0.41069 0.30841 0.0
C308 C 0.91105 0.40544 0.33949 0.0
C309 C 0.93133 0.43452 0.27502 0.0
C310 C 0.94203 0.42089 0.24688 0.0
O311 O 0.89559 0.41458 0.59151 0.0
O312 O 0.89118 0.41356 0.39962 0.0
O313 O 0.82889 0.43050 0.51716 0.0
H314 H 0.93109 0.43804 0.74363 0.0
H315 H 0.95311 0.39628 0.73537 0.0
H316 H 0.94282 0.38143 0.67680 0.0
H317 H 0.92199 0.38384 0.61723 0.0
H318 H 0.89562 0.44198 0.64151 0.0
H319 H 0.91642 0.43959 0.70101 0.0
H320 H 0.89817 0.38752 0.58386 0.0
H321 H 0.91457 0.39465 0.55865 0.0
H322 H 0.91391 0.42060 0.47217 0.0
H323 H 0.92272 0.39855 0.49228 0.0
H324 H 0.91583 0.41754 0.52437 0.0
H325 H 0.87366 0.39413 0.59422 0.0
H326 H 0.86599 0.38058 0.56153 0.0
H327 H 0.85106 0.40190 0.57681 0.0
H328 H 0.85678 0.43316 0.41494 0.0
H329 H 0.83913 0.43805 0.45037 0.0
H330 H 0.84542 0.41748 0.42351 0.0
H331 H 0.83408 0.40872 0.47861 0.0
H332 H 0.83735 0.40309 0.52993 0.0
H333 H 0.81348 0.40438 0.50650 0.0
H334 H 0.77976 0.40934 0.50296 0.0
H335 H 0.76777 0.46777 0.52238 0.0
H336 H 0.80149 0.46280 0.52593 0.0
H337 H 0.74216 0.45520 0.51300 0.0
H338 H 0.75563 0.41288 0.49955 0.0
H339 H 0.87768 0.43908 0.42244 0.0
H340 H 0.90037 0.42895 0.43854 0.0
H341 H 0.89234 0.44754 0.38698 0.0
H342 H 0.91009 0.45672 0.33262 0.0
H343 H 0.92918 0.40073 0.28727 0.0
H344 H 0.91137 0.39159 0.34151 0.0
H345 H 0.93113 0.44835 0.27297 0.0
H346 H 0.94220 0.40707 0.24904 0.0
C347 C 0.44863 0.93281 0.75158 0.0
C348 C 0.46477 0.92378 0.72786 0.0
C349 C 0.46352 0.91274 0.69357 0.0
C350 C 0.47956 0.90358 0.66963 0.0
C351 C 0.47819 0.89252 0.63543 0.0
C352 C 0.46080 0.89064 0.62532 0.0
C353 C 0.44477 0.89984 0.64916 0.0
C354 C 0.44614 0.91087 0.68331 0.0
C355 C 0.47542 0.87415 0.56812 0.0
C356 C 0.47004 0.86587 0.53362 0.0
C357 C 0.47122 0.84693 0.53505 0.0
C358 C 0.46275 0.83969 0.50354 0.0
C359 C 0.45503 0.85069 0.46857 0.0
C360 C 0.45536 0.86915 0.46563 0.0
C361 C 0.46285 0.87675 0.49824 0.0
C362 C 0.46190 0.89567 0.49680 0.0
C363 C 0.47954 0.83573 0.56939 0.0
C364 C 0.44644 0.84339 0.43730 0.0
C365 C 0.46175 0.82155 0.50705 0.0
C366 C 0.44065 0.80689 0.51639 0.0
C367 C 0.45602 0.79034 0.51003 0.0
C368 C 0.45317 0.77290 0.50793 0.0
C369 C 0.43495 0.77203 0.51218 0.0
C370 C 0.41959 0.78858 0.51887 0.0
C371 C 0.42245 0.80603 0.52097 0.0
C372 C 0.43214 0.75458 0.50969 0.0
C373 C 0.44755 0.73811 0.50283 0.0
C374 C 0.44734 0.88039 0.43128 0.0
C375 C 0.45496 0.88781 0.36822 0.0
C376 C 0.43625 0.90000 0.36564 0.0
C377 C 0.43100 0.91376 0.33447 0.0
C378 C 0.44449 0.91531 0.30606 0.0
C379 C 0.46318 0.90308 0.30862 0.0
C380 C 0.46843 0.88932 0.33974 0.0
C381 C 0.43936 0.92915 0.27508 0.0
C382 C 0.45298 0.93068 0.24703 0.0
O383 O 0.45929 0.88002 0.59169 0.0
O384 O 0.46031 0.87491 0.39980 0.0
O385 O 0.44337 0.82400 0.51721 0.0
H386 H 0.43584 0.93130 0.74366 0.0
H387 H 0.47758 0.92525 0.73569 0.0
H388 H 0.49243 0.90497 0.67722 0.0
H389 H 0.49003 0.88575 0.61763 0.0
H390 H 0.43189 0.89847 0.64150 0.0
H391 H 0.43429 0.91766 0.70103 0.0
H392 H 0.48634 0.86440 0.58422 0.0
H393 H 0.47922 0.88559 0.55897 0.0
H394 H 0.45327 0.90238 0.47231 0.0
H395 H 0.47531 0.89637 0.49257 0.0
H396 H 0.45633 0.90225 0.52453 0.0
H397 H 0.47974 0.84434 0.59452 0.0
H398 H 0.49328 0.82755 0.56193 0.0
H399 H 0.47197 0.82695 0.57706 0.0
H400 H 0.44072 0.85367 0.41498 0.0
H401 H 0.43583 0.83931 0.45037 0.0
H402 H 0.45639 0.83177 0.42365 0.0
H403 H 0.46515 0.81454 0.47881 0.0
H404 H 0.47078 0.81403 0.53017 0.0
H405 H 0.46949 0.79102 0.50672 0.0
H406 H 0.46453 0.76063 0.50313 0.0
H407 H 0.40611 0.78793 0.52216 0.0
H408 H 0.41109 0.81831 0.52575 0.0
H409 H 0.41868 0.75386 0.51285 0.0
H410 H 0.46100 0.73887 0.49969 0.0
H411 H 0.43479 0.87857 0.42245 0.0
H412 H 0.44492 0.89445 0.43862 0.0
H413 H 0.42634 0.89890 0.38693 0.0
H414 H 0.41716 0.92283 0.33252 0.0
H415 H 0.47314 0.90427 0.28755 0.0
H416 H 0.48228 0.88032 0.34185 0.0
H417 H 0.42553 0.93824 0.27294 0.0
H418 H 0.46679 0.92156 0.24928 0.0
C419 C 0.43243 0.52890 0.47446 0.0
C420 C 0.41279 0.53691 0.47853 0.0
C421 C 0.39316 0.54492 0.48265 0.0
C422 C 0.38229 0.55515 0.44968 0.0
C423 C 0.36266 0.56315 0.45379 0.0
C424 C 0.35391 0.56094 0.49090 0.0
C425 C 0.36478 0.55071 0.52388 0.0
C426 C 0.38441 0.54270 0.51975 0.0
C427 C 0.33428 0.56895 0.49501 0.0
C428 C 0.31465 0.57695 0.49916 0.0
H429 H 0.38877 0.55680 0.42222 0.0
H430 H 0.35461 0.57071 0.42937 0.0
H431 H 0.35830 0.54907 0.55134 0.0
H432 H 0.39246 0.53512 0.54415 0.0
C433 C 0.54073 0.42578 0.53052 0.0
C434 C 0.54955 0.40624 0.52619 0.0
C435 C 0.55836 0.38670 0.52190 0.0
C436 C 0.55787 0.37794 0.48362 0.0
C437 C 0.56669 0.35840 0.47933 0.0
C438 C 0.57598 0.34761 0.51334 0.0
C439 C 0.57647 0.35636 0.55163 0.0
C440 C 0.56766 0.37590 0.55591 0.0
C441 C 0.58480 0.32807 0.50905 0.0
C442 C 0.59361 0.30853 0.50480 0.0
H443 H 0.55098 0.38593 0.45845 0.0
H444 H 0.56635 0.35193 0.45098 0.0
H445 H 0.58335 0.34837 0.57680 0.0
H446 H 0.56803 0.38239 0.58424 0.0
C447 C 0.60198 0.48699 0.47447 0.0
C448 C 0.62154 0.47818 0.47849 0.0
C449 C 0.64109 0.46936 0.48246 0.0
C450 C 0.65200 0.47889 0.50171 0.0
C451 C 0.67155 0.47007 0.50571 0.0
C452 C 0.68019 0.45172 0.49039 0.0
C453 C 0.66927 0.44220 0.47115 0.0
C454 C 0.64972 0.45101 0.46719 0.0
C455 C 0.69974 0.44290 0.49438 0.0
C456 C 0.71929 0.43407 0.49834 0.0
H457 H 0.64562 0.49248 0.51301 0.0
H458 H 0.67963 0.47711 0.51999 0.0
H459 H 0.67566 0.42861 0.45983 0.0
H460 H 0.64164 0.44396 0.45295 0.0
C461 C 0.49883 0.59528 0.53050 0.0
C462 C 0.49084 0.61490 0.52607 0.0
C463 C 0.48284 0.63452 0.52164 0.0
C464 C 0.48837 0.64651 0.54818 0.0
C465 C 0.48037 0.66613 0.54373 0.0
C466 C 0.46683 0.67375 0.51278 0.0
C467 C 0.46130 0.66175 0.48623 0.0
C468 C 0.46931 0.64214 0.49066 0.0
C469 C 0.45883 0.69337 0.50834 0.0
C470 C 0.45082 0.71298 0.50387 0.0
H471 H 0.49838 0.64088 0.57113 0.0
H472 H 0.48447 0.67501 0.56336 0.0
H473 H 0.45128 0.66740 0.46331 0.0
H474 H 0.46523 0.63325 0.47100 0.0
C475 C 0.06194 0.53090 0.86721 0.0
C476 C 0.06843 0.54319 0.84391 0.0
C477 C 0.07493 0.55548 0.82060 0.0
C478 C 0.08144 0.56775 0.79727 0.0
C479 C 0.55760 0.05060 0.86727 0.0
C480 C 0.56941 0.05772 0.84396 0.0
C481 C 0.58122 0.06485 0.82067 0.0
C482 C 0.59304 0.07199 0.79742 0.0
C483 C 0.97602 0.46976 0.13457 0.0
C484 C 0.96909 0.45790 0.15821 0.0
C485 C 0.96214 0.44605 0.18184 0.0
C486 C 0.95517 0.43421 0.20545 0.0
C487 C 0.49651 0.96462 0.13465 0.0
C488 C 0.48418 0.95832 0.15829 0.0
C489 C 0.47186 0.95201 0.18194 0.0
C490 C 0.45956 0.94568 0.20559 0.0
C491 C 0.55755 0.05211 0.13539 0.0
C492 C 0.56948 0.05898 0.15917 0.0
C493 C 0.58142 0.06582 0.18295 0.0
C494 C 0.59337 0.07266 0.20672 0.0
C495 C 0.06275 0.53170 0.13508 0.0
C496 C 0.06919 0.54390 0.15899 0.0
C497 C 0.07561 0.55612 0.18289 0.0
C498 C 0.08202 0.56836 0.20679 0.0
C499 C 0.97671 0.47056 0.86647 0.0
C500 C 0.96968 0.45865 0.84306 0.0
C501 C 0.96266 0.44674 0.81964 0.0
C502 C 0.95565 0.43481 0.79619 0.0
C503 C 0.49645 0.96609 0.86676 0.0
C504 C 0.48427 0.95949 0.84317 0.0
C505 C 0.47208 0.95289 0.81961 0.0
C506 C 0.45988 0.94628 0.79609 0.0
