data_{}
_symmetry_space_group_name_H-M    P1
_symmetry_Int_Tables_number       1
_symmetry_cell_setting            triclinic
loop_
_symmetry_equiv_pos_as_xyz
'x, y, z'
_cell_length_a     50.985
_cell_length_b     48.759
_cell_length_c     74.808
_cell_angle_alpha  89.263
_cell_angle_beta   91.388
_cell_angle_gamma  89.220
loop_
_atom_site_label
_atom_site_type_symbol
_atom_site_fract_x
_atom_site_fract_y
_atom_site_fract_z
_atom_type_partial_charge
H0 H 0.06762 0.02697 0.00208 0.0
H1 H 0.08215 0.04175 0.01787 0.0
H2 H 0.08227 0.00964 0.01714 0.0
H3 H 0.95961 0.02992 0.02377 0.0
H4 H 0.97264 0.04728 0.00869 0.0
H5 H 0.97119 0.01529 0.00712 0.0
H6 H 0.04323 0.01842 0.07733 0.0
H7 H 0.01586 0.03304 0.07897 0.0
H8 H 0.01743 0.00143 0.07548 0.0
H9 H 0.02850 0.06034 0.93633 0.0
H10 H 0.04029 0.03081 0.93382 0.0
H11 H 0.00977 0.03548 0.93335 0.0
H12 H 0.02913 0.09721 0.99325 0.0
H13 H 0.01075 0.08239 0.00672 0.0
H14 H 0.04129 0.07893 0.00880 0.0
H15 H 0.01829 0.96515 0.98481 0.0
H16 H 0.03495 0.97555 0.00119 0.0
H17 H 0.00426 0.97818 0.00115 0.0
C18 C 0.07209 0.02600 0.01462 0.0
C19 C 0.04787 0.02415 0.04381 0.0
C20 C 0.04732 0.02546 0.02523 0.0
C21 C 0.02345 0.02701 0.01588 0.0
C22 C 0.00010 0.02726 0.02511 0.0
C23 C 0.00010 0.02595 0.04369 0.0
C24 C 0.02453 0.02439 0.05304 0.0
C25 C 0.97341 0.03022 0.01525 0.0
C26 C 0.02532 0.01880 0.07303 0.0
C27 C 0.02241 0.01026 0.96655 0.0
C28 C 0.02555 0.03613 0.95896 0.0
C29 C 0.02729 0.05898 0.96982 0.0
C30 C 0.02595 0.05595 0.98829 0.0
C31 C 0.02281 0.03004 0.99588 0.0
C32 C 0.02107 0.00719 0.98499 0.0
C33 C 0.02606 0.04116 0.93872 0.0
C34 C 0.02684 0.08094 0.00010 0.0
C35 C 0.01951 0.97890 0.99385 0.0
Si36 Si 0.53245 0.53276 0.51181 0.0
C37 C 0.59238 0.55170 0.54800 0.0
C38 C 0.50998 0.58990 0.47253 0.0
C39 C 0.51165 0.56697 0.48383 0.0
C40 C 0.53255 0.56347 0.49657 0.0
C41 C 0.55215 0.58313 0.49680 0.0
C42 C 0.55088 0.60568 0.48514 0.0
C43 C 0.52982 0.60912 0.47332 0.0
C44 C 0.50851 0.46176 0.48566 0.0
C45 C 0.51015 0.48307 0.49777 0.0
C46 C 0.52944 0.50257 0.49665 0.0
C47 C 0.54762 0.50051 0.48291 0.0
C48 C 0.54650 0.47948 0.47078 0.0
C49 C 0.52717 0.46009 0.47204 0.0
H50 H 0.62900 0.53571 0.54911 0.0
C51 C 0.46219 0.55776 0.53368 0.0
C52 C 0.45762 0.53765 0.54638 0.0
C53 C 0.47531 0.51631 0.54917 0.0
C54 C 0.49777 0.51514 0.53930 0.0
C55 C 0.50311 0.53499 0.52637 0.0
H56 H 0.52889 0.62449 0.46581 0.0
C57 C 0.48475 0.55598 0.52380 0.0
H58 H 0.49880 0.55368 0.48300 0.0
H59 H 0.52642 0.44588 0.46390 0.0
H60 H 0.44252 0.53857 0.55308 0.0
C61 C 0.61270 0.53446 0.54331 0.0
H62 H 0.56627 0.58116 0.50483 0.0
H63 H 0.49801 0.48423 0.50681 0.0
H64 H 0.56066 0.51358 0.48197 0.0
C65 C 0.60894 0.51505 0.52987 0.0
C66 C 0.58479 0.51409 0.52083 0.0
C67 C 0.56364 0.53155 0.52528 0.0
C68 C 0.56832 0.54978 0.53897 0.0
H69 H 0.50967 0.50073 0.54132 0.0
H70 H 0.48774 0.56936 0.51514 0.0
H71 H 0.58253 0.50164 0.51163 0.0
H72 H 0.55470 0.56136 0.54232 0.0
C73 C 0.88463 0.41063 0.66293 0.0
C74 C 0.89762 0.38226 0.66051 0.0
C75 C 0.92570 0.37679 0.66785 0.0
C76 C 0.93899 0.34854 0.66549 0.0
C77 C 0.96713 0.34331 0.67285 0.0
C78 C 0.98189 0.36635 0.68251 0.0
C79 C 0.96857 0.39453 0.68492 0.0
C80 C 0.94048 0.39976 0.67757 0.0
C81 C 0.01781 0.33166 0.68891 0.0
C82 C 0.04415 0.33106 0.69926 0.0
C83 C 0.06951 0.33800 0.68958 0.0
C84 C 0.09487 0.34259 0.70062 0.0
C85 C 0.09561 0.33697 0.72094 0.0
C86 C 0.07071 0.32746 0.73031 0.0
C87 C 0.04494 0.32455 0.71945 0.0
C88 C 0.01951 0.31728 0.72903 0.0
C89 C 0.06897 0.34260 0.66914 0.0
C90 C 0.12102 0.34183 0.73191 0.0
C91 C 0.11945 0.35315 0.69146 0.0
C92 C 0.14704 0.39407 0.68999 0.0
C93 C 0.16479 0.37619 0.67839 0.0
C94 C 0.19129 0.38722 0.67226 0.0
C95 C 0.19999 0.41610 0.67773 0.0
C96 C 0.18211 0.43407 0.68921 0.0
C97 C 0.15561 0.42303 0.69535 0.0
C98 C 0.22662 0.42693 0.67171 0.0
C99 C 0.24443 0.40879 0.66030 0.0
C100 C 0.07105 0.32239 0.75065 0.0
C101 C 0.07910 0.28567 0.77290 0.0
C102 C 0.07222 0.30723 0.78694 0.0
C103 C 0.06656 0.29808 0.80622 0.0
C104 C 0.06772 0.26740 0.81137 0.0
C105 C 0.07468 0.24588 0.79731 0.0
C106 C 0.08038 0.25502 0.77806 0.0
C107 C 0.06183 0.25812 0.83056 0.0
C108 C 0.06283 0.22738 0.83551 0.0
O109 O 0.00929 0.36133 0.68992 0.0
O110 O 0.08337 0.29444 0.75384 0.0
O111 O 0.12152 0.38292 0.69647 0.0
H112 H 0.89583 0.42746 0.67015 0.0
H113 H 0.88649 0.36538 0.65330 0.0
H114 H 0.92804 0.33154 0.65830 0.0
H115 H 0.97701 0.32242 0.67114 0.0
H116 H 0.97952 0.41151 0.69215 0.0
H117 H 0.93062 0.42063 0.67932 0.0
H118 H 0.02037 0.32534 0.67442 0.0
H119 H 0.00318 0.31785 0.69581 0.0
H120 H 0.02301 0.31853 0.74411 0.0
H121 H 0.01340 0.29559 0.72541 0.0
H122 H 0.00332 0.33245 0.72467 0.0
H123 H 0.04802 0.34745 0.66429 0.0
H124 H 0.07623 0.32314 0.66243 0.0
H125 H 0.08226 0.36032 0.66550 0.0
H126 H 0.11734 0.33801 0.74670 0.0
H127 H 0.12737 0.36394 0.72978 0.0
H128 H 0.13714 0.32731 0.72730 0.0
H129 H 0.13749 0.34120 0.69668 0.0
H130 H 0.11737 0.35115 0.67633 0.0
H131 H 0.15837 0.35476 0.67442 0.0
H132 H 0.20450 0.37399 0.66370 0.0
H133 H 0.18851 0.45550 0.69320 0.0
H134 H 0.14238 0.43625 0.70392 0.0
H135 H 0.23315 0.44832 0.67571 0.0
H136 H 0.23783 0.38743 0.65632 0.0
H137 H 0.08289 0.33866 0.75794 0.0
H138 H 0.05004 0.32248 0.75554 0.0
H139 H 0.07115 0.32989 0.78304 0.0
H140 H 0.06140 0.31399 0.81665 0.0
H141 H 0.07552 0.22318 0.80116 0.0
H142 H 0.08536 0.23912 0.76760 0.0
H143 H 0.05670 0.27393 0.84106 0.0
H144 H 0.06796 0.21164 0.82497 0.0
C145 C 0.67224 0.87964 0.35458 0.0
C146 C 0.69592 0.89638 0.36113 0.0
C147 C 0.70484 0.92125 0.35006 0.0
C148 C 0.72854 0.93816 0.35640 0.0
C149 C 0.73735 0.96297 0.34520 0.0
C150 C 0.72246 0.97076 0.32770 0.0
C151 C 0.69873 0.95393 0.32140 0.0
C152 C 0.68993 0.92916 0.33258 0.0
C153 C 0.75153 0.01180 0.32614 0.0
C154 C 0.75397 0.03694 0.31379 0.0
C155 C 0.77240 0.03583 0.29785 0.0
C156 C 0.77093 0.05889 0.28363 0.0
C157 C 0.75353 0.08447 0.28647 0.0
C158 C 0.73699 0.08663 0.30335 0.0
C159 C 0.73718 0.06280 0.31701 0.0
C160 C 0.71900 0.06391 0.33313 0.0
C161 C 0.79057 0.01068 0.29538 0.0
C162 C 0.75201 0.10736 0.27209 0.0
C163 C 0.78655 0.05633 0.26643 0.0
C164 C 0.77977 0.05010 0.23408 0.0
C165 C 0.80957 0.05426 0.23320 0.0
C166 C 0.82278 0.05583 0.21494 0.0
C167 C 0.80615 0.05323 0.19760 0.0
C168 C 0.77636 0.04884 0.19850 0.0
C169 C 0.76316 0.04727 0.21677 0.0
C170 C 0.81941 0.05508 0.17937 0.0
C171 C 0.84919 0.05960 0.17858 0.0
C172 C 0.71908 0.11178 0.30612 0.0
C173 C 0.71963 0.15730 0.31968 0.0
C174 C 0.69062 0.15970 0.31361 0.0
C175 C 0.67305 0.18247 0.32118 0.0
C176 C 0.68454 0.20271 0.33482 0.0
C177 C 0.71358 0.20031 0.34083 0.0
C178 C 0.73114 0.17759 0.33325 0.0
C179 C 0.66702 0.22534 0.34256 0.0
C180 C 0.67866 0.24530 0.35631 0.0
O181 O 0.73074 0.99516 0.31676 0.0
O182 O 0.73651 0.13423 0.31298 0.0
O183 O 0.76674 0.04947 0.25193 0.0
H184 H 0.66140 0.88573 0.34159 0.0
H185 H 0.70682 0.89037 0.37411 0.0
H186 H 0.73957 0.93231 0.36936 0.0
H187 H 0.75486 0.97554 0.34987 0.0
H188 H 0.68768 0.95983 0.30846 0.0
H189 H 0.67240 0.91665 0.32791 0.0
H190 H 0.77086 0.99990 0.32733 0.0
H191 H 0.74472 0.01835 0.33986 0.0
H192 H 0.70465 0.08192 0.33129 0.0
H193 H 0.73118 0.06662 0.34595 0.0
H194 H 0.70765 0.04397 0.33399 0.0
H195 H 0.78287 0.99248 0.30330 0.0
H196 H 0.81117 0.01571 0.30053 0.0
H197 H 0.79134 0.00531 0.28062 0.0
H198 H 0.73717 0.12371 0.27610 0.0
H199 H 0.74559 0.09816 0.25878 0.0
H200 H 0.77214 0.11696 0.27069 0.0
H201 H 0.79621 0.07670 0.26321 0.0
H202 H 0.80203 0.03931 0.26791 0.0
H203 H 0.82182 0.05630 0.24605 0.0
H204 H 0.84484 0.05897 0.21424 0.0
H205 H 0.76408 0.04681 0.18566 0.0
H206 H 0.74108 0.04414 0.21747 0.0
H207 H 0.80721 0.05315 0.16648 0.0
H208 H 0.86134 0.06151 0.19149 0.0
H209 H 0.70876 0.11851 0.29308 0.0
H210 H 0.70393 0.10655 0.31656 0.0
H211 H 0.68214 0.14453 0.30363 0.0
H212 H 0.65154 0.18428 0.31674 0.0
H213 H 0.72202 0.21533 0.35094 0.0
H214 H 0.75259 0.17566 0.33777 0.0
H215 H 0.64550 0.22728 0.33816 0.0
H216 H 0.70018 0.24328 0.36068 0.0
C217 C 0.82997 0.68015 0.65862 0.0
C218 C 0.84353 0.66505 0.67460 0.0
C219 C 0.87147 0.67302 0.68058 0.0
C220 C 0.88533 0.65804 0.69651 0.0
C221 C 0.91333 0.66613 0.70236 0.0
C222 C 0.92738 0.68912 0.69225 0.0
C223 C 0.91350 0.70413 0.67638 0.0
C224 C 0.88555 0.69606 0.67054 0.0
C225 C 0.96371 0.68373 0.71531 0.0
C226 C 0.98974 0.69794 0.71956 0.0
C227 C 0.01527 0.68706 0.71156 0.0
C228 C 0.04020 0.70437 0.71297 0.0
C229 C 0.04042 0.73065 0.72418 0.0
C230 C 0.01539 0.74005 0.73360 0.0
C231 C 0.99001 0.72368 0.73125 0.0
C232 C 0.96442 0.73429 0.73941 0.0
C233 C 0.01528 0.66018 0.70091 0.0
C234 C 0.06540 0.74798 0.72541 0.0
C235 C 0.06488 0.69571 0.70301 0.0
C236 C 0.09180 0.71031 0.67786 0.0
C237 C 0.11022 0.68658 0.68399 0.0
C238 C 0.13671 0.68236 0.67491 0.0
C239 C 0.14473 0.70188 0.65971 0.0
C240 C 0.12619 0.72549 0.65348 0.0
C241 C 0.09969 0.72970 0.66257 0.0
C242 C 0.17135 0.69774 0.65080 0.0
C243 C 0.18983 0.67416 0.65716 0.0
C244 C 0.01520 0.76659 0.74449 0.0
C245 C 0.02320 0.78279 0.77501 0.0
C246 C 0.01551 0.81143 0.76758 0.0
C247 C 0.00941 0.83483 0.78051 0.0
C248 C 0.01095 0.82947 0.80085 0.0
C249 C 0.01872 0.80083 0.80826 0.0
C250 C 0.02485 0.77746 0.79533 0.0
C251 C 0.00463 0.85270 0.81384 0.0
C252 C 0.00602 0.84705 0.83414 0.0
O253 O 0.95464 0.69737 0.69800 0.0
O254 O 0.02791 0.75954 0.76238 0.0
O255 O 0.06628 0.71497 0.68714 0.0
H256 H 0.84065 0.69717 0.65130 0.0
H257 H 0.83292 0.64802 0.68195 0.0
H258 H 0.87490 0.64099 0.70395 0.0
H259 H 0.92362 0.65511 0.71415 0.0
H260 H 0.92392 0.72123 0.66898 0.0
H261 H 0.87527 0.70713 0.65877 0.0
H262 H 0.96683 0.66075 0.71348 0.0
H263 H 0.94911 0.68784 0.72630 0.0
H264 H 0.96743 0.75600 0.74447 0.0
H265 H 0.95881 0.72032 0.75101 0.0
H266 H 0.94810 0.73444 0.72872 0.0
H267 H 0.99440 0.65543 0.69623 0.0
H268 H 0.02309 0.64272 0.70993 0.0
H269 H 0.02837 0.66227 0.68885 0.0
H270 H 0.06133 0.76725 0.73342 0.0
H271 H 0.07143 0.75402 0.71133 0.0
H272 H 0.08191 0.73546 0.73224 0.0
H273 H 0.08296 0.69808 0.71210 0.0
H274 H 0.06330 0.67360 0.69837 0.0
H275 H 0.10429 0.67222 0.69530 0.0
H276 H 0.15042 0.66484 0.67946 0.0
H277 H 0.13209 0.73987 0.64218 0.0
H278 H 0.08597 0.74724 0.65803 0.0
H279 H 0.17739 0.71211 0.63952 0.0
H280 H 0.18374 0.65982 0.66843 0.0
H281 H 0.02652 0.78348 0.73752 0.0
H282 H 0.99403 0.77359 0.74641 0.0
H283 H 0.01416 0.81524 0.75252 0.0
H284 H 0.00365 0.85606 0.77506 0.0
H285 H 0.01984 0.79693 0.82332 0.0
H286 H 0.03044 0.75619 0.80078 0.0
H287 H 0.99890 0.87399 0.80847 0.0
H288 H 0.01174 0.82572 0.83945 0.0
C289 C 0.37868 0.81884 0.35070 0.0
C290 C 0.35168 0.83253 0.35335 0.0
C291 C 0.34632 0.86184 0.34615 0.0
C292 C 0.31944 0.87586 0.34875 0.0
C293 C 0.31430 0.90522 0.34152 0.0
C294 C 0.33607 0.92049 0.33175 0.0
C295 C 0.36289 0.90645 0.32911 0.0
C296 C 0.36802 0.87713 0.33632 0.0
C297 C 0.30283 0.95810 0.32572 0.0
C298 C 0.30202 0.98555 0.31546 0.0
C299 C 0.30906 0.01213 0.32518 0.0
C300 C 0.31318 0.03852 0.31420 0.0
C301 C 0.30717 0.03914 0.29391 0.0
C302 C 0.29769 0.01305 0.28452 0.0
C303 C 0.29516 0.98621 0.29531 0.0
C304 C 0.28781 0.95956 0.28568 0.0
C305 C 0.31410 0.01174 0.34560 0.0
C306 C 0.31156 0.06559 0.28300 0.0
C307 C 0.32366 0.06428 0.32337 0.0
C308 C 0.36292 0.09301 0.32467 0.0
C309 C 0.34626 0.11173 0.33645 0.0
C310 C 0.35710 0.13945 0.34261 0.0
C311 C 0.38457 0.14840 0.33697 0.0
C312 C 0.40132 0.12955 0.32531 0.0
C313 C 0.39048 0.10182 0.31915 0.0
C314 C 0.39521 0.17626 0.34302 0.0
C315 C 0.37829 0.19504 0.35462 0.0
C316 C 0.29220 0.01324 0.26421 0.0
C317 C 0.25642 0.02157 0.24223 0.0
C318 C 0.27656 0.01418 0.22801 0.0
C319 C 0.26719 0.00811 0.20878 0.0
C320 C 0.23769 0.00939 0.20384 0.0
C321 C 0.21759 0.01685 0.21806 0.0
C322 C 0.22696 0.02296 0.23728 0.0
C323 C 0.22819 0.00308 0.18468 0.0
C324 C 0.19864 0.00418 0.17994 0.0
O325 O 0.33114 0.94909 0.32447 0.0
O326 O 0.26542 0.02618 0.26125 0.0
O327 O 0.35197 0.06630 0.31817 0.0
H328 H 0.39458 0.83043 0.34341 0.0
H329 H 0.33573 0.82102 0.36064 0.0
H330 H 0.30337 0.86452 0.35601 0.0
H331 H 0.29441 0.91563 0.34340 0.0
H332 H 0.37894 0.91778 0.32180 0.0
H333 H 0.38789 0.86674 0.33440 0.0
H334 H 0.29726 0.96093 0.34025 0.0
H335 H 0.28936 0.94279 0.31885 0.0
H336 H 0.28855 0.96308 0.27061 0.0
H337 H 0.26718 0.95328 0.28943 0.0
H338 H 0.30240 0.94262 0.28989 0.0
H339 H 0.31881 0.98986 0.35034 0.0
H340 H 0.29573 0.01945 0.35246 0.0
H341 H 0.33121 0.02560 0.34917 0.0
H342 H 0.30743 0.06162 0.26822 0.0
H343 H 0.33279 0.07217 0.28501 0.0
H344 H 0.29788 0.08253 0.28776 0.0
H345 H 0.31213 0.08313 0.31830 0.0
H346 H 0.32222 0.06224 0.33852 0.0
H347 H 0.32588 0.10511 0.34055 0.0
H348 H 0.34477 0.15339 0.35130 0.0
H349 H 0.42170 0.13614 0.32119 0.0
H350 H 0.40280 0.08787 0.31044 0.0
H351 H 0.41555 0.18299 0.33890 0.0
H352 H 0.35797 0.18825 0.35871 0.0
H353 H 0.30757 0.02549 0.25685 0.0
H354 H 0.29206 0.99122 0.25924 0.0
H355 H 0.29835 0.01302 0.23176 0.0
H356 H 0.28204 0.00258 0.19822 0.0
H357 H 0.19576 0.01777 0.21437 0.0
H358 H 0.21210 0.02831 0.24787 0.0
H359 H 0.24295 0.99758 0.17405 0.0
H360 H 0.18395 0.00969 0.19061 0.0
C361 C 0.63594 0.49757 0.53908 0.0
C362 C 0.65949 0.48904 0.55129 0.0
C363 C 0.68303 0.48052 0.56350 0.0
C364 C 0.67845 0.46915 0.58245 0.0
C365 C 0.70201 0.46063 0.59465 0.0
C366 C 0.73015 0.46348 0.58789 0.0
C367 C 0.73473 0.47485 0.56894 0.0
C368 C 0.71117 0.48337 0.55675 0.0
C369 C 0.75370 0.45493 0.60009 0.0
C370 C 0.78183 0.45776 0.59334 0.0
C371 C 0.80538 0.44921 0.60555 0.0
C372 C 0.80078 0.43786 0.62451 0.0
C373 C 0.77264 0.43504 0.63126 0.0
C374 C 0.74910 0.44358 0.61905 0.0
C375 C 0.82432 0.42932 0.63672 0.0
C376 C 0.84784 0.42078 0.64895 0.0
H377 H 0.65762 0.46705 0.58745 0.0
H378 H 0.69862 0.45221 0.60868 0.0
H379 H 0.75556 0.47695 0.56394 0.0
H380 H 0.71456 0.49180 0.54272 0.0
H381 H 0.78524 0.46617 0.57931 0.0
H382 H 0.82621 0.45129 0.60055 0.0
H383 H 0.76924 0.42663 0.64529 0.0
H384 H 0.72826 0.44150 0.62405 0.0
C385 C 0.56141 0.47380 0.46445 0.0
C386 C 0.57292 0.45050 0.45321 0.0
C387 C 0.58443 0.42721 0.44197 0.0
C388 C 0.56612 0.40601 0.43333 0.0
C389 C 0.57765 0.38273 0.42209 0.0
C390 C 0.60747 0.38064 0.41948 0.0
C391 C 0.62578 0.40184 0.42813 0.0
C392 C 0.61425 0.42512 0.43937 0.0
C393 C 0.61898 0.35737 0.40823 0.0
C394 C 0.64880 0.35529 0.40562 0.0
C395 C 0.66030 0.33201 0.39436 0.0
C396 C 0.64199 0.31080 0.38574 0.0
C397 C 0.61216 0.31288 0.38835 0.0
C398 C 0.60067 0.33616 0.39960 0.0
C399 C 0.65349 0.28751 0.37448 0.0
C400 C 0.66495 0.26420 0.36323 0.0
H401 H 0.54404 0.40755 0.43526 0.0
H402 H 0.56410 0.36703 0.41569 0.0
H403 H 0.64785 0.40031 0.42620 0.0
H404 H 0.62780 0.44081 0.44577 0.0
H405 H 0.66237 0.37098 0.41200 0.0
H406 H 0.68238 0.33047 0.39241 0.0
H407 H 0.59860 0.29718 0.38196 0.0
H408 H 0.57859 0.33770 0.40155 0.0
C409 C 0.43610 0.57765 0.53907 0.0
C410 C 0.41299 0.58717 0.55044 0.0
C411 C 0.38987 0.59669 0.56181 0.0
C412 C 0.36158 0.58930 0.55625 0.0
C413 C 0.33848 0.59882 0.56763 0.0
C414 C 0.34366 0.61574 0.58456 0.0
C415 C 0.37195 0.62314 0.59012 0.0
C416 C 0.39505 0.61362 0.57874 0.0
C417 C 0.32055 0.62524 0.59594 0.0
C418 C 0.32573 0.64214 0.61288 0.0
C419 C 0.30261 0.65164 0.62426 0.0
C420 C 0.27433 0.64425 0.61869 0.0
C421 C 0.26915 0.62735 0.60174 0.0
C422 C 0.29227 0.61785 0.59037 0.0
C423 C 0.25120 0.65375 0.63006 0.0
C424 C 0.22806 0.66324 0.64141 0.0
H425 H 0.35775 0.57678 0.54372 0.0
H426 H 0.31755 0.59334 0.56352 0.0
H427 H 0.37579 0.63566 0.60265 0.0
H428 H 0.41599 0.61910 0.58284 0.0
H429 H 0.34666 0.64762 0.61701 0.0
H430 H 0.30643 0.66414 0.63680 0.0
H431 H 0.24821 0.62187 0.59763 0.0
H432 H 0.28845 0.60534 0.57783 0.0
C433 C 0.57112 0.63190 0.47790 0.0
C434 C 0.58085 0.65552 0.46603 0.0
C435 C 0.59059 0.67914 0.45416 0.0
C436 C 0.57076 0.69952 0.44530 0.0
C437 C 0.58051 0.72314 0.43344 0.0
C438 C 0.61008 0.72638 0.43043 0.0
C439 C 0.62991 0.70599 0.43928 0.0
C440 C 0.62016 0.68238 0.45114 0.0
C441 C 0.61982 0.75001 0.41858 0.0
C442 C 0.64939 0.75326 0.41557 0.0
C443 C 0.65912 0.77690 0.40371 0.0
C444 C 0.63928 0.79726 0.39485 0.0
C445 C 0.60970 0.79401 0.39785 0.0
C446 C 0.59998 0.77037 0.40971 0.0
C447 C 0.64900 0.82090 0.38299 0.0
C448 C 0.65869 0.84454 0.37112 0.0
H449 H 0.54886 0.69712 0.44753 0.0
H450 H 0.56583 0.73823 0.42689 0.0
H451 H 0.65180 0.70839 0.43706 0.0
H452 H 0.63483 0.66728 0.45769 0.0
H453 H 0.66408 0.73819 0.42212 0.0
H454 H 0.68101 0.77933 0.40149 0.0
H455 H 0.59501 0.80909 0.39130 0.0
H456 H 0.57808 0.76795 0.41194 0.0
C457 C 0.48815 0.43692 0.47634 0.0
C458 C 0.47760 0.41404 0.46424 0.0
C459 C 0.46705 0.39115 0.45215 0.0
C460 C 0.44188 0.39605 0.44069 0.0
C461 C 0.43135 0.37315 0.42860 0.0
C462 C 0.44597 0.34536 0.42797 0.0
C463 C 0.47114 0.34045 0.43943 0.0
C464 C 0.48167 0.36334 0.45152 0.0
C465 C 0.43544 0.32248 0.41587 0.0
C466 C 0.45007 0.29468 0.41523 0.0
C467 C 0.43953 0.27181 0.40312 0.0
C468 C 0.41435 0.27672 0.39167 0.0
C469 C 0.39972 0.30452 0.39231 0.0
C470 C 0.41026 0.32739 0.40442 0.0
C471 C 0.40380 0.25384 0.37957 0.0
C472 C 0.39322 0.23099 0.36746 0.0
H473 H 0.43105 0.41663 0.44116 0.0
H474 H 0.41273 0.37679 0.42011 0.0
H475 H 0.48197 0.31988 0.43897 0.0
H476 H 0.50029 0.35972 0.46002 0.0
H477 H 0.46870 0.29104 0.42370 0.0
H478 H 0.45036 0.25123 0.40263 0.0
H479 H 0.38109 0.30815 0.38383 0.0
H480 H 0.39944 0.34797 0.40490 0.0
C481 C 0.46809 0.50764 0.55500 0.0
C482 C 0.44523 0.49745 0.56629 0.0
C483 C 0.42236 0.48726 0.57758 0.0
C484 C 0.39382 0.49332 0.57139 0.0
C485 C 0.37096 0.48312 0.58269 0.0
C486 C 0.37665 0.46687 0.60017 0.0
C487 C 0.40520 0.46081 0.60636 0.0
C488 C 0.42805 0.47101 0.59506 0.0
C489 C 0.35379 0.45665 0.61145 0.0
C490 C 0.35947 0.44038 0.62892 0.0
C491 C 0.33660 0.43017 0.64020 0.0
C492 C 0.30806 0.43626 0.63402 0.0
C493 C 0.30238 0.45254 0.61654 0.0
C494 C 0.32525 0.46274 0.60526 0.0
C495 C 0.28519 0.42606 0.64529 0.0
C496 C 0.26229 0.41589 0.65656 0.0
H497 H 0.38960 0.50536 0.55845 0.0
H498 H 0.34984 0.48761 0.57811 0.0
H499 H 0.40941 0.44877 0.61929 0.0
H500 H 0.44918 0.46654 0.59965 0.0
H501 H 0.38059 0.43588 0.63351 0.0
H502 H 0.34080 0.41811 0.65314 0.0
H503 H 0.28125 0.45704 0.61195 0.0
H504 H 0.32105 0.47480 0.59233 0.0
C505 C 0.50107 0.59329 0.46372 0.0
C506 C 0.48802 0.61586 0.45183 0.0
C507 C 0.47498 0.63843 0.43993 0.0
C508 C 0.45683 0.63061 0.42411 0.0
C509 C 0.44379 0.65319 0.41222 0.0
C510 C 0.44890 0.68360 0.41616 0.0
C511 C 0.46705 0.69143 0.43199 0.0
C512 C 0.48009 0.66885 0.44387 0.0
C513 C 0.43584 0.70618 0.40428 0.0
C514 C 0.44093 0.73659 0.40822 0.0
C515 C 0.42786 0.75916 0.39633 0.0
C516 C 0.40973 0.75132 0.38050 0.0
C517 C 0.40464 0.72090 0.37656 0.0
C518 C 0.41771 0.69834 0.38845 0.0
C519 C 0.39667 0.77388 0.36861 0.0
C520 C 0.38360 0.79642 0.35670 0.0
H521 H 0.45305 0.60809 0.42119 0.0
H522 H 0.43035 0.64740 0.40051 0.0
H523 H 0.47083 0.71394 0.43490 0.0
H524 H 0.49354 0.67464 0.45558 0.0
H525 H 0.45436 0.74240 0.41993 0.0
H526 H 0.43161 0.78168 0.39925 0.0
H527 H 0.39121 0.71510 0.36484 0.0
H528 H 0.41395 0.67582 0.38553 0.0
C529 C 0.59677 0.56504 0.55613 0.0
C530 C 0.62004 0.57698 0.56683 0.0
C531 C 0.64331 0.58893 0.57753 0.0
C532 C 0.63881 0.60205 0.59584 0.0
C533 C 0.66209 0.61399 0.60652 0.0
C534 C 0.68986 0.61281 0.59890 0.0
C535 C 0.69436 0.59970 0.58059 0.0
C536 C 0.67108 0.58776 0.56991 0.0
C537 C 0.71313 0.62473 0.60961 0.0
C538 C 0.74091 0.62355 0.60200 0.0
C539 C 0.76418 0.63548 0.61270 0.0
C540 C 0.75966 0.64861 0.63101 0.0
C541 C 0.73188 0.64980 0.63862 0.0
C542 C 0.70862 0.63787 0.62791 0.0
C543 C 0.78293 0.66054 0.64171 0.0
C544 C 0.80617 0.67250 0.65244 0.0
H545 H 0.61825 0.60292 0.60148 0.0
H546 H 0.65876 0.62369 0.62008 0.0
H547 H 0.71492 0.59882 0.57495 0.0
H548 H 0.67441 0.57807 0.55635 0.0
H549 H 0.74426 0.61384 0.58844 0.0
H550 H 0.78475 0.63459 0.60708 0.0
H551 H 0.72854 0.65951 0.65217 0.0
H552 H 0.68805 0.63875 0.63354 0.0
C553 C 0.94141 0.04264 0.09108 0.0
N554 N 0.94983 0.03132 0.10968 0.0
N555 N 0.93186 0.03537 0.12570 0.0
C556 C 0.90546 0.05073 0.12314 0.0
N557 N 0.89698 0.06209 0.10453 0.0
N558 N 0.91496 0.05804 0.08849 0.0
C559 C 0.95941 0.03857 0.07505 0.0
C560 C 0.97721 0.03465 0.05892 0.0
C561 C 0.88763 0.05466 0.13926 0.0
C562 C 0.86991 0.05851 0.15544 0.0
C563 C 0.04064 0.12414 0.92157 0.0
N564 N 0.06811 0.12875 0.91408 0.0
N565 N 0.07177 0.14937 0.89862 0.0
C566 C 0.04798 0.16541 0.89064 0.0
N567 N 0.02045 0.16083 0.89812 0.0
N568 N 0.01678 0.14018 0.91360 0.0
C569 C 0.03701 0.10350 0.93705 0.0
C570 C 0.03308 0.08293 0.95252 0.0
C571 C 0.05186 0.18599 0.87517 0.0
C572 C 0.05590 0.20654 0.85971 0.0
C573 C 0.10796 0.01785 0.09090 0.0
N574 N 0.09653 0.01329 0.10955 0.0
N575 N 0.11501 0.00934 0.12599 0.0
C576 C 0.14492 0.00994 0.12380 0.0
N577 N 0.15640 0.01451 0.10514 0.0
N578 N 0.13791 0.01847 0.08868 0.0
C579 C 0.08944 0.02181 0.07447 0.0
C580 C 0.07116 0.02581 0.05792 0.0
C581 C 0.16322 0.00596 0.14033 0.0
C582 C 0.18140 0.00197 0.15693 0.0
C583 C 0.01401 0.94775 0.91994 0.0
N584 N 0.98688 0.94297 0.91113 0.0
N585 N 0.98435 0.92469 0.89457 0.0
C586 C 0.00895 0.91117 0.88681 0.0
N587 N 0.03613 0.91592 0.89561 0.0
N588 N 0.03866 0.93422 0.91219 0.0
C589 C 0.01650 0.96605 0.93652 0.0
C590 C 0.01929 0.98428 0.95309 0.0
C591 C 0.00620 0.89292 0.87024 0.0
C592 C 0.00329 0.87470 0.85367 0.0
