data_{}
_symmetry_space_group_name_H-M    P1
_symmetry_Int_Tables_number       1
_symmetry_cell_setting            triclinic
loop_
_symmetry_equiv_pos_as_xyz
'x, y, z'
_cell_length_a     54.917
_cell_length_b     54.868
_cell_length_c     31.730
_cell_angle_alpha  90.370
_cell_angle_beta   90.370
_cell_angle_gamma  99.599
loop_
_atom_site_label
_atom_site_type_symbol
_atom_site_fract_x
_atom_site_fract_y
_atom_site_fract_z
_atom_type_partial_charge
C0 C 0.06701 0.67719 0.04332 0.0
C1 C 0.03897 0.67717 0.04308 0.0
C2 C 0.02490 0.67716 0.00010 0.0
C3 C 0.03888 0.67717 0.95902 0.0
C4 C 0.06693 0.67719 0.95925 0.0
C5 C 0.08099 0.67720 0.00140 0.0
H6 H 0.10175 0.67721 0.00157 0.0
H7 H 0.00414 0.67714 0.00010 0.0
C8 C 0.66730 0.07647 0.95924 0.0
C9 C 0.66729 0.04840 0.95902 0.0
C10 C 0.66728 0.03440 0.00010 0.0
C11 C 0.66729 0.04848 0.04308 0.0
C12 C 0.66730 0.07655 0.04331 0.0
C13 C 0.66731 0.09054 0.00139 0.0
H14 H 0.66733 0.11133 0.00156 0.0
H15 H 0.66726 0.01362 0.00010 0.0
H16 H 0.59904 0.50132 0.50040 0.0
H17 H 0.56659 0.46883 0.49663 0.0
C18 C 0.53456 0.51353 0.49612 0.0
C19 C 0.56342 0.48498 0.49725 0.0
C20 C 0.53911 0.48916 0.49551 0.0
C21 C 0.50933 0.51868 0.48845 0.0
C22 C 0.50403 0.54401 0.49636 0.0
C23 C 0.47967 0.54834 0.49580 0.0
C24 C 0.51901 0.58798 0.50348 0.0
C25 C 0.52375 0.56378 0.50113 0.0
C26 C 0.54951 0.55901 0.50614 0.0
C27 C 0.55436 0.53335 0.50034 0.0
C28 C 0.49477 0.59212 0.50268 0.0
C29 C 0.47530 0.57254 0.49915 0.0
H30 H 0.45914 0.57563 0.49903 0.0
H31 H 0.49153 0.60820 0.50451 0.0
O32 O 0.49321 0.50288 0.47337 0.0
O33 O 0.56604 0.57546 0.51691 0.0
C34 C 0.57860 0.52872 0.50181 0.0
C35 C 0.58292 0.50445 0.49989 0.0
C36 C 0.33354 0.54334 0.49232 0.0
N37 N 0.29961 0.55154 0.53193 0.0
N38 N 0.29952 0.55784 0.46158 0.0
C39 C 0.22749 0.56897 0.54162 0.0
C40 C 0.25114 0.56350 0.53953 0.0
C41 C 0.32205 0.54429 0.52875 0.0
C42 C 0.22739 0.57564 0.46708 0.0
C43 C 0.25105 0.57023 0.46437 0.0
C44 C 0.32196 0.55054 0.45902 0.0
H45 H 0.25884 0.55879 0.56734 0.0
H46 H 0.29206 0.55216 0.55865 0.0
H47 H 0.32979 0.53976 0.55367 0.0
H48 H 0.25868 0.57065 0.43480 0.0
H49 H 0.29191 0.56305 0.43704 0.0
H50 H 0.32964 0.55063 0.43229 0.0
H51 H 0.20010 0.57738 0.50678 0.0
C52 C 0.21542 0.57458 0.50543 0.0
C53 C 0.26308 0.56383 0.50066 0.0
C54 C 0.28844 0.55766 0.49799 0.0
C55 C 0.53064 0.34202 0.49226 0.0
N56 N 0.54180 0.30934 0.53191 0.0
N57 N 0.53696 0.30440 0.46139 0.0
C58 C 0.56552 0.23992 0.54171 0.0
C59 C 0.55755 0.26250 0.53958 0.0
C60 C 0.53583 0.33237 0.52876 0.0
C61 C 0.56040 0.23468 0.46698 0.0
C62 C 0.55239 0.25722 0.46423 0.0
C63 C 0.53104 0.32746 0.45885 0.0
H64 H 0.55722 0.27212 0.56746 0.0
H65 H 0.54521 0.30301 0.55869 0.0
H66 H 0.53534 0.34188 0.55375 0.0
H67 H 0.54812 0.26280 0.43458 0.0
H68 H 0.53685 0.29446 0.43677 0.0
H69 H 0.52700 0.33335 0.43205 0.0
H70 H 0.57314 0.21216 0.50686 0.0
C71 C 0.56740 0.22622 0.50546 0.0
C72 C 0.55113 0.27150 0.50060 0.0
C73 C 0.54282 0.29595 0.49790 0.0
C74 C 0.72790 0.54308 0.50648 0.0
N75 N 0.76459 0.55126 0.46710 0.0
N76 N 0.76676 0.55755 0.53762 0.0
C77 C 0.84252 0.56862 0.45791 0.0
C78 C 0.81704 0.56317 0.45984 0.0
C79 C 0.73972 0.54403 0.47008 0.0
C80 C 0.84482 0.57529 0.53263 0.0
C81 C 0.81937 0.56990 0.53518 0.0
C82 C 0.74188 0.55027 0.53997 0.0
H83 H 0.80777 0.55847 0.43190 0.0
H84 H 0.77234 0.55188 0.44040 0.0
H85 H 0.73047 0.53951 0.44503 0.0
H86 H 0.81187 0.57033 0.56476 0.0
H87 H 0.77610 0.56276 0.56229 0.0
H88 H 0.73423 0.55037 0.56670 0.0
H89 H 0.87271 0.57701 0.49299 0.0
C90 C 0.85645 0.57422 0.49425 0.0
C91 C 0.80521 0.56352 0.49871 0.0
C92 C 0.77778 0.55737 0.50120 0.0
C93 C 0.53040 0.73745 0.50644 0.0
N94 N 0.54153 0.77387 0.46710 0.0
N95 N 0.53670 0.77718 0.53751 0.0
C96 C 0.56520 0.85123 0.45797 0.0
C97 C 0.55725 0.82598 0.45987 0.0
C98 C 0.53559 0.74885 0.47009 0.0
C99 C 0.56008 0.85474 0.53257 0.0
C100 C 0.55208 0.82952 0.53510 0.0
C101 C 0.53079 0.75214 0.53987 0.0
H102 H 0.55693 0.81626 0.43198 0.0
H103 H 0.54494 0.78135 0.44042 0.0
H104 H 0.53511 0.73918 0.44508 0.0
H105 H 0.54782 0.82250 0.56463 0.0
H106 H 0.53658 0.78707 0.56213 0.0
H107 H 0.52676 0.74490 0.56656 0.0
H108 H 0.57280 0.88152 0.49304 0.0
C109 C 0.56707 0.86555 0.49428 0.0
C110 C 0.55083 0.81482 0.49868 0.0
C111 C 0.54254 0.78760 0.50115 0.0
C112 C 0.44923 0.53877 0.49899 0.0
C113 C 0.42117 0.53864 0.49912 0.0
C114 C 0.39310 0.53849 0.49928 0.0
C115 C 0.36503 0.53833 0.49948 0.0
C116 C 0.52913 0.45911 0.49956 0.0
C117 C 0.52897 0.43101 0.49954 0.0
C118 C 0.52878 0.40292 0.49955 0.0
C119 C 0.52858 0.37481 0.49958 0.0
C120 C 0.60983 0.53817 0.49860 0.0
C121 C 0.63786 0.53809 0.49873 0.0
C122 C 0.66589 0.53804 0.49885 0.0
C123 C 0.69393 0.53801 0.49896 0.0
C124 C 0.52855 0.61898 0.49922 0.0
C125 C 0.52846 0.64703 0.49922 0.0
C126 C 0.52837 0.67509 0.49917 0.0
C127 C 0.52829 0.70314 0.49909 0.0
C128 C 0.10752 0.63529 0.87923 0.0
C129 C 0.11247 0.65048 0.83862 0.0
C130 C 0.10330 0.67541 0.83455 0.0
C131 C 0.08917 0.68513 0.87106 0.0
C132 C 0.08421 0.66994 0.91166 0.0
C133 C 0.09339 0.64502 0.91575 0.0
C134 C 0.12653 0.64071 0.80206 0.0
C135 C 0.14056 0.63095 0.76545 0.0
C136 C 0.15455 0.62117 0.72880 0.0
C137 C 0.16851 0.61139 0.69211 0.0
C138 C 0.18243 0.60159 0.65539 0.0
C139 C 0.18693 0.61659 0.61451 0.0
C140 C 0.20076 0.60675 0.57772 0.0
C141 C 0.21010 0.58192 0.58182 0.0
C142 C 0.20563 0.56694 0.62272 0.0
C143 C 0.19179 0.57677 0.65951 0.0
H144 H 0.11432 0.61685 0.88227 0.0
H145 H 0.10698 0.68665 0.80449 0.0
H146 H 0.08239 0.70359 0.86803 0.0
H147 H 0.08973 0.63378 0.94582 0.0
H148 H 0.18000 0.63497 0.61147 0.0
H149 H 0.20407 0.61785 0.54744 0.0
H150 H 0.21256 0.54856 0.62577 0.0
H151 H 0.18848 0.56568 0.68979 0.0
C152 C 0.64668 0.13476 0.88118 0.0
C153 C 0.64012 0.12163 0.83857 0.0
C154 C 0.64346 0.09452 0.83251 0.0
C155 C 0.65339 0.08055 0.86904 0.0
C156 C 0.65996 0.09368 0.91164 0.0
C157 C 0.65660 0.12079 0.91771 0.0
C158 C 0.63027 0.13562 0.80199 0.0
C159 C 0.62044 0.14962 0.76538 0.0
C160 C 0.61066 0.16361 0.72873 0.0
C161 C 0.60092 0.17760 0.69204 0.0
C162 C 0.59121 0.19160 0.65533 0.0
C163 C 0.58512 0.17856 0.61251 0.0
C164 C 0.57551 0.19259 0.57574 0.0
C165 C 0.57197 0.21964 0.58179 0.0
C166 C 0.57803 0.23267 0.62463 0.0
C167 C 0.58765 0.21864 0.66140 0.0
H168 H 0.64418 0.15482 0.88568 0.0
H169 H 0.63860 0.08479 0.80097 0.0
H170 H 0.65587 0.06048 0.86455 0.0
H171 H 0.66145 0.13051 0.94926 0.0
H172 H 0.58775 0.15854 0.60802 0.0
H173 H 0.57103 0.18295 0.54403 0.0
H174 H 0.57540 0.25269 0.62912 0.0
H175 H 0.59214 0.22829 0.69311 0.0
C176 C 0.98788 0.63334 0.12530 0.0
C177 C 0.98457 0.65030 0.16296 0.0
C178 C 0.99859 0.67705 0.16436 0.0
C179 C 0.01595 0.68684 0.12812 0.0
C180 C 0.01928 0.66988 0.09047 0.0
C181 C 0.00524 0.64313 0.08906 0.0
C182 C 0.96726 0.64048 0.19927 0.0
C183 C 0.94999 0.63068 0.23562 0.0
C184 C 0.93276 0.62087 0.27202 0.0
C185 C 0.91556 0.61106 0.30846 0.0
C186 C 0.89839 0.60125 0.34494 0.0
C187 C 0.89549 0.61810 0.38294 0.0
C188 C 0.87840 0.60826 0.41950 0.0
C189 C 0.86420 0.58157 0.41805 0.0
C190 C 0.86709 0.56474 0.38002 0.0
C191 C 0.88418 0.57457 0.34347 0.0
H192 H 0.97748 0.61354 0.12425 0.0
H193 H 0.99613 0.68960 0.19223 0.0
H194 H 0.02634 0.70664 0.12916 0.0
H195 H 0.00769 0.63058 0.06118 0.0
H196 H 0.90600 0.63785 0.38402 0.0
H197 H 0.87627 0.62072 0.44765 0.0
H198 H 0.85657 0.54499 0.37894 0.0
H199 H 0.88632 0.56210 0.31532 0.0
C200 C 0.64141 0.98383 0.11828 0.0
C201 C 0.64000 0.99437 0.16313 0.0
C202 C 0.64853 0.02215 0.17165 0.0
C203 C 0.65849 0.03939 0.13534 0.0
C204 C 0.65991 0.02885 0.09050 0.0
C205 C 0.65137 0.00107 0.08196 0.0
C206 C 0.63012 0.97711 0.19947 0.0
C207 C 0.62026 0.95987 0.23584 0.0
C208 C 0.61045 0.94263 0.27224 0.0
C209 C 0.60068 0.92539 0.30868 0.0
C210 C 0.59095 0.90815 0.34512 0.0
C211 C 0.59001 0.91867 0.39009 0.0
C212 C 0.58037 0.90142 0.42657 0.0
C213 C 0.57166 0.87366 0.41809 0.0
C214 C 0.57257 0.86315 0.37312 0.0
C215 C 0.58222 0.88040 0.33663 0.0
H216 H 0.63508 0.96326 0.11196 0.0
H217 H 0.64747 0.02995 0.20485 0.0
H218 H 0.66480 0.05996 0.14166 0.0
H219 H 0.65241 0.99327 0.04876 0.0
H220 H 0.59647 0.93922 0.39637 0.0
H221 H 0.57970 0.90920 0.45987 0.0
H222 H 0.56611 0.84260 0.36684 0.0
H223 H 0.58290 0.87262 0.30333 0.0
C224 C 0.64213 0.09442 0.16887 0.0
C225 C 0.64003 0.12190 0.16395 0.0
C226 C 0.64786 0.13533 0.12252 0.0
C227 C 0.65783 0.12130 0.08602 0.0
C228 C 0.65995 0.09383 0.09094 0.0
C229 C 0.65209 0.08039 0.13237 0.0
C230 C 0.63013 0.13595 0.20051 0.0
C231 C 0.62027 0.15003 0.23707 0.0
C232 C 0.61046 0.16413 0.27363 0.0
C233 C 0.60068 0.17826 0.31022 0.0
C234 C 0.59094 0.19240 0.34682 0.0
C235 C 0.58931 0.22000 0.34210 0.0
C236 C 0.57967 0.23417 0.37875 0.0
C237 C 0.57164 0.22074 0.42011 0.0
C238 C 0.57325 0.19313 0.42481 0.0
C239 C 0.58289 0.17896 0.38816 0.0
H240 H 0.63631 0.08447 0.19953 0.0
H241 H 0.64629 0.15567 0.11888 0.0
H242 H 0.66364 0.13125 0.05534 0.0
H243 H 0.65365 0.06005 0.13600 0.0
H244 H 0.59526 0.22994 0.31148 0.0
H245 H 0.57848 0.25460 0.37527 0.0
H246 H 0.56729 0.18318 0.45542 0.0
H247 H 0.58409 0.15852 0.39164 0.0
C248 C 0.10073 0.63248 0.12896 0.0
C249 C 0.11214 0.65012 0.16443 0.0
C250 C 0.10959 0.67763 0.16323 0.0
C251 C 0.09564 0.68751 0.12653 0.0
C252 C 0.08424 0.66987 0.09104 0.0
C253 C 0.08678 0.64235 0.09226 0.0
C254 C 0.12616 0.64026 0.20106 0.0
C255 C 0.14020 0.63042 0.23768 0.0
C256 C 0.15429 0.62061 0.27426 0.0
C257 C 0.16842 0.61081 0.31081 0.0
C258 C 0.18257 0.60103 0.34735 0.0
C259 C 0.19438 0.61882 0.38234 0.0
C260 C 0.20862 0.60907 0.41878 0.0
C261 C 0.21105 0.58153 0.42024 0.0
C262 C 0.19922 0.56374 0.38526 0.0
C263 C 0.18498 0.57349 0.34882 0.0
H264 H 0.10260 0.61210 0.12986 0.0
H265 H 0.11803 0.69069 0.18950 0.0
H266 H 0.09376 0.70788 0.12564 0.0
H267 H 0.07832 0.62929 0.06600 0.0
H268 H 0.19259 0.63921 0.38125 0.0
H269 H 0.21738 0.62224 0.44466 0.0
H270 H 0.20101 0.54335 0.38636 0.0
H271 H 0.17623 0.56032 0.32292 0.0
C272 C 0.99803 0.67718 0.83743 0.0
C273 C 0.98418 0.65035 0.83778 0.0
C274 C 0.98778 0.63331 0.87487 0.0
C275 C 0.00525 0.64308 0.91159 0.0
C276 C 0.01911 0.66990 0.91123 0.0
C277 C 0.01549 0.68695 0.87415 0.0
C278 C 0.96678 0.64056 0.80099 0.0
C279 C 0.94939 0.63074 0.76419 0.0
C280 C 0.93203 0.62088 0.72736 0.0
C281 C 0.91471 0.61101 0.69051 0.0
C282 C 0.89741 0.60112 0.65364 0.0
C283 C 0.88396 0.57415 0.65369 0.0
C284 C 0.86675 0.56422 0.61674 0.0
C285 C 0.86297 0.58127 0.57975 0.0
C286 C 0.87640 0.60825 0.57973 0.0
C287 C 0.89362 0.61817 0.61667 0.0
H288 H 0.99535 0.68980 0.80999 0.0
H289 H 0.97752 0.61346 0.87513 0.0
H290 H 0.00791 0.63047 0.93905 0.0
H291 H 0.02574 0.70681 0.87390 0.0
H292 H 0.88677 0.56152 0.68106 0.0
H293 H 0.85681 0.54425 0.61675 0.0
H294 H 0.87358 0.62087 0.55236 0.0
H295 H 0.90356 0.63815 0.61665 0.0
C296 C 0.66778 0.00602 0.83905 0.0
C297 C 0.64030 0.99427 0.83710 0.0
C298 C 0.62265 0.99990 0.87212 0.0
C299 C 0.63250 0.01699 0.90912 0.0
C300 C 0.65998 0.02874 0.91109 0.0
C301 C 0.67762 0.02326 0.87605 0.0
C302 C 0.63046 0.97698 0.80018 0.0
C303 C 0.62062 0.95965 0.76328 0.0
C304 C 0.61078 0.94230 0.72645 0.0
C305 C 0.60093 0.92490 0.68966 0.0
C306 C 0.59108 0.90748 0.65290 0.0
C307 C 0.56369 0.89538 0.65147 0.0
C308 C 0.55386 0.87787 0.61482 0.0
C309 C 0.57141 0.87248 0.57959 0.0
C310 C 0.59880 0.88461 0.58100 0.0
C311 C 0.60863 0.90211 0.61766 0.0
H312 H 0.68084 0.00197 0.81311 0.0
H313 H 0.60231 0.99107 0.87066 0.0
H314 H 0.61944 0.02106 0.93505 0.0
H315 H 0.69797 0.03196 0.87750 0.0
H316 H 0.55070 0.89936 0.67757 0.0
H317 H 0.53359 0.86890 0.61377 0.0
H318 H 0.61179 0.88063 0.55490 0.0
H319 H 0.62891 0.91109 0.61871 0.0
