data_{}
_symmetry_space_group_name_H-M    P1
_symmetry_Int_Tables_number       1
_symmetry_cell_setting            triclinic
loop_
_symmetry_equiv_pos_as_xyz
'x, y, z'
_cell_length_a     79.505
_cell_length_b     79.497
_cell_length_c     39.164
_cell_angle_alpha  89.884
_cell_angle_beta   90.359
_cell_angle_gamma  90.750
loop_
_atom_site_label
_atom_site_type_symbol
_atom_site_fract_x
_atom_site_fract_y
_atom_site_fract_z
_atom_type_partial_charge
Mg0 Mg 0.00994 0.51373 0.00010 0.0
C1 C 0.98489 0.51854 0.06292 0.0
C2 C 0.03498 0.50892 0.93753 0.0
O3 O 0.02446 0.50244 0.03823 0.0
O4 O 0.02488 0.51654 0.08754 0.0
O5 O 0.98942 0.51633 0.03303 0.0
O6 O 0.99447 0.51842 0.08910 0.0
O7 O 0.99542 0.52502 0.96222 0.0
O8 O 0.99499 0.51092 0.91291 0.0
O9 O 0.03046 0.51113 0.96742 0.0
C10 C 0.03211 0.50825 0.06313 0.0
C11 C 0.98777 0.51921 0.93732 0.0
O12 O 0.02541 0.50904 0.91135 0.0
Mg13 Mg 0.51411 0.01876 0.00010 0.0
C14 C 0.51894 0.04396 0.06318 0.0
C15 C 0.50929 0.99356 0.93729 0.0
O16 O 0.50283 0.00396 0.03796 0.0
O17 O 0.51693 0.00392 0.08749 0.0
O18 O 0.51672 0.03936 0.03322 0.0
O19 O 0.51882 0.03439 0.08929 0.0
O20 O 0.52540 0.03356 0.96250 0.0
O21 O 0.51129 0.03360 0.91298 0.0
O22 O 0.51151 0.99816 0.96725 0.0
C23 C 0.50864 0.99647 0.06290 0.0
C24 C 0.51959 0.04105 0.93757 0.0
O25 O 0.50941 0.00313 0.91118 0.0
H26 H 0.51909 0.48934 0.54882 0.0
H27 H 0.52685 0.46149 0.55142 0.0
H28 H 0.52706 0.46189 0.45130 0.0
H29 H 0.51571 0.48801 0.45235 0.0
H30 H 0.53957 0.52403 0.45189 0.0
H31 H 0.56787 0.53074 0.44958 0.0
H32 H 0.56787 0.53022 0.54970 0.0
H33 H 0.53935 0.52748 0.54833 0.0
H34 H 0.51293 0.55121 0.54402 0.0
H35 H 0.50744 0.57915 0.54340 0.0
H36 H 0.48255 0.57225 0.45502 0.0
H37 H 0.48955 0.54450 0.45847 0.0
H38 H 0.49697 0.51074 0.57262 0.0
H39 H 0.48203 0.49951 0.45617 0.0
H40 H 0.45474 0.49079 0.45653 0.0
H41 H 0.44903 0.51564 0.54466 0.0
H42 H 0.47687 0.52296 0.54149 0.0
H43 H 0.50995 0.53297 0.42767 0.0
C44 C 0.52000 0.48343 0.52846 0.0
C45 C 0.52487 0.46660 0.53042 0.0
C46 C 0.52658 0.45806 0.50122 0.0
C47 C 0.52448 0.46681 0.47212 0.0
C48 C 0.51855 0.48293 0.47301 0.0
C49 C 0.54527 0.52606 0.47230 0.0
C50 C 0.56246 0.52996 0.47052 0.0
C51 C 0.57088 0.53255 0.49980 0.0
C52 C 0.56223 0.53011 0.52881 0.0
C53 C 0.54514 0.52749 0.52774 0.0
C54 C 0.50697 0.55557 0.52558 0.0
C55 C 0.50364 0.57234 0.52561 0.0
C56 C 0.49446 0.57912 0.49860 0.0
C57 C 0.48896 0.56837 0.47325 0.0
C58 C 0.49328 0.55164 0.47582 0.0
C59 C 0.47536 0.50256 0.47451 0.0
C60 C 0.45896 0.49736 0.47432 0.0
C61 C 0.44861 0.50202 0.50117 0.0
C62 C 0.45550 0.51196 0.52653 0.0
C63 C 0.47233 0.51629 0.52414 0.0
S64 S 0.50910 0.51842 0.56275 0.0
S65 S 0.50906 0.51870 0.43763 0.0
N66 N 0.51664 0.49143 0.50028 0.0
N67 N 0.53666 0.52508 0.50039 0.0
N68 N 0.50221 0.54487 0.50058 0.0
N69 N 0.48255 0.51182 0.49953 0.0
Co70 Co 0.50945 0.51834 0.50019 0.0
C71 C 0.13721 0.43610 0.27286 0.0
C72 C 0.14063 0.42026 0.29439 0.0
C73 C 0.15259 0.42138 0.32539 0.0
C74 C 0.15618 0.40563 0.34713 0.0
C75 C 0.16820 0.40687 0.37805 0.0
C76 C 0.17661 0.42384 0.38711 0.0
C77 C 0.17298 0.43957 0.36546 0.0
C78 C 0.16098 0.43834 0.33458 0.0
C79 C 0.18838 0.40942 0.43888 0.0
C80 C 0.19900 0.41459 0.47005 0.0
C81 C 0.21825 0.41327 0.46886 0.0
C82 C 0.22893 0.42148 0.49731 0.0
C83 C 0.22038 0.42912 0.52877 0.0
C84 C 0.20107 0.42896 0.53132 0.0
C85 C 0.19037 0.42171 0.50188 0.0
C86 C 0.17106 0.42281 0.50308 0.0
C87 C 0.22679 0.40504 0.43796 0.0
C88 C 0.23117 0.43744 0.55699 0.0
C89 C 0.24816 0.42229 0.49423 0.0
C90 C 0.27123 0.44277 0.48577 0.0
C91 C 0.28273 0.42761 0.49167 0.0
C92 C 0.30192 0.43024 0.49366 0.0
C93 C 0.30958 0.44803 0.48973 0.0
C94 C 0.29806 0.46317 0.48354 0.0
C95 C 0.27887 0.46054 0.48157 0.0
C96 C 0.32876 0.45062 0.49207 0.0
C97 C 0.34018 0.43541 0.49842 0.0
C98 C 0.19238 0.43689 0.56223 0.0
C99 C 0.18188 0.42952 0.61914 0.0
C100 C 0.17614 0.44790 0.62131 0.0
C101 C 0.16381 0.45315 0.64935 0.0
C102 C 0.15720 0.43999 0.67505 0.0
C103 C 0.16299 0.42162 0.67289 0.0
C104 C 0.17534 0.41638 0.64490 0.0
C105 C 0.14474 0.44512 0.70292 0.0
C106 C 0.13811 0.43183 0.72828 0.0
O107 O 0.18824 0.42522 0.41751 0.0
O108 O 0.19329 0.42417 0.59073 0.0
O109 O 0.25242 0.44026 0.48496 0.0
H110 H 0.14353 0.44858 0.27996 0.0
H111 H 0.13434 0.40775 0.28738 0.0
H112 H 0.14996 0.39307 0.34033 0.0
H113 H 0.17087 0.39525 0.39421 0.0
H114 H 0.17918 0.45214 0.37232 0.0
H115 H 0.15830 0.44997 0.31850 0.0
H116 H 0.19445 0.39866 0.42446 0.0
H117 H 0.17508 0.40580 0.44710 0.0
H118 H 0.16730 0.43129 0.52511 0.0
H119 H 0.16536 0.40971 0.50695 0.0
H120 H 0.16626 0.42831 0.47799 0.0
H121 H 0.21775 0.40493 0.41524 0.0
H122 H 0.23020 0.39155 0.44481 0.0
H123 H 0.23871 0.41236 0.43106 0.0
H124 H 0.22262 0.44312 0.57705 0.0
H125 H 0.23935 0.44777 0.54517 0.0
H126 H 0.23957 0.42762 0.56942 0.0
H127 H 0.25421 0.41891 0.51977 0.0
H128 H 0.25262 0.41340 0.47344 0.0
H129 H 0.27703 0.41446 0.49472 0.0
H130 H 0.31047 0.41904 0.49811 0.0
H131 H 0.30374 0.47633 0.48051 0.0
H132 H 0.27030 0.47175 0.47713 0.0
H133 H 0.33451 0.46375 0.48915 0.0
H134 H 0.33440 0.42229 0.50131 0.0
H135 H 0.19893 0.44913 0.57015 0.0
H136 H 0.17866 0.43938 0.55552 0.0
H137 H 0.18095 0.45756 0.60206 0.0
H138 H 0.15951 0.46674 0.65100 0.0
H139 H 0.15807 0.41191 0.69195 0.0
H140 H 0.17955 0.40277 0.64311 0.0
H141 H 0.14041 0.45871 0.70473 0.0
H142 H 0.14247 0.41826 0.72636 0.0
C143 C 0.59169 0.14857 0.27649 0.0
C144 C 0.60754 0.15234 0.29813 0.0
C145 C 0.60643 0.16420 0.32903 0.0
C146 C 0.62218 0.16815 0.35087 0.0
C147 C 0.62094 0.18007 0.38169 0.0
C148 C 0.60398 0.18803 0.39054 0.0
C149 C 0.58825 0.18404 0.36878 0.0
C150 C 0.58947 0.17214 0.33801 0.0
C151 C 0.61841 0.20005 0.44235 0.0
C152 C 0.61324 0.21047 0.47339 0.0
C153 C 0.61458 0.22976 0.47206 0.0
C154 C 0.60638 0.24017 0.50036 0.0
C155 C 0.59873 0.23136 0.53182 0.0
C156 C 0.59888 0.21204 0.53452 0.0
C157 C 0.60612 0.20159 0.50523 0.0
C158 C 0.60501 0.18224 0.50656 0.0
C159 C 0.62281 0.23858 0.44117 0.0
C160 C 0.59042 0.24187 0.55988 0.0
C161 C 0.60558 0.25939 0.49712 0.0
C162 C 0.58512 0.28195 0.48832 0.0
C163 C 0.60028 0.29383 0.49426 0.0
C164 C 0.59767 0.31296 0.49607 0.0
C165 C 0.57989 0.32016 0.49194 0.0
C166 C 0.56473 0.30828 0.48571 0.0
C167 C 0.56735 0.28915 0.48390 0.0
C168 C 0.57731 0.33928 0.49411 0.0
C169 C 0.59252 0.35108 0.50050 0.0
C170 C 0.59094 0.20308 0.56543 0.0
C171 C 0.59831 0.19264 0.62248 0.0
C172 C 0.57993 0.18643 0.62454 0.0
C173 C 0.57467 0.17389 0.65263 0.0
C174 C 0.58782 0.16757 0.67849 0.0
C175 C 0.60619 0.17382 0.67644 0.0
C176 C 0.61144 0.18637 0.64841 0.0
C177 C 0.58268 0.15491 0.70641 0.0
C178 C 0.59597 0.14857 0.73194 0.0
O179 O 0.60261 0.19955 0.42084 0.0
O180 O 0.60366 0.20425 0.59403 0.0
O181 O 0.58761 0.26321 0.48767 0.0
H182 H 0.57922 0.15455 0.28343 0.0
H183 H 0.62003 0.14639 0.29127 0.0
H184 H 0.63473 0.16226 0.34423 0.0
H185 H 0.63257 0.18299 0.39793 0.0
H186 H 0.57569 0.18991 0.37549 0.0
H187 H 0.57784 0.16920 0.32185 0.0
H188 H 0.62917 0.20642 0.42797 0.0
H189 H 0.62201 0.18682 0.45070 0.0
H190 H 0.59652 0.17822 0.52854 0.0
H191 H 0.61810 0.17687 0.51059 0.0
H192 H 0.59951 0.17736 0.48146 0.0
H193 H 0.62292 0.22959 0.41851 0.0
H194 H 0.63631 0.24232 0.44810 0.0
H195 H 0.61550 0.25033 0.43411 0.0
H196 H 0.58474 0.23313 0.57997 0.0
H197 H 0.58010 0.24981 0.54792 0.0
H198 H 0.60024 0.25050 0.57233 0.0
H199 H 0.60896 0.26546 0.52265 0.0
H200 H 0.61447 0.26412 0.47638 0.0
H201 H 0.61343 0.28846 0.49746 0.0
H202 H 0.60888 0.32178 0.50055 0.0
H203 H 0.55158 0.31363 0.48252 0.0
H204 H 0.55615 0.28031 0.47943 0.0
H205 H 0.56418 0.34470 0.49104 0.0
H206 H 0.60564 0.34562 0.50354 0.0
H207 H 0.57871 0.20930 0.57319 0.0
H208 H 0.58845 0.18930 0.55880 0.0
H209 H 0.57027 0.19103 0.60517 0.0
H210 H 0.56107 0.16924 0.65420 0.0
H211 H 0.61591 0.16911 0.69562 0.0
H212 H 0.62506 0.19094 0.64670 0.0
H213 H 0.56910 0.15023 0.70814 0.0
H214 H 0.60954 0.15327 0.73010 0.0
C215 C 0.88356 0.59333 0.72760 0.0
C216 C 0.87973 0.57749 0.70619 0.0
C217 C 0.86780 0.57861 0.67518 0.0
C218 C 0.86379 0.56286 0.65357 0.0
C219 C 0.85180 0.56410 0.62264 0.0
C220 C 0.84384 0.58107 0.61344 0.0
C221 C 0.84788 0.59681 0.63497 0.0
C222 C 0.85985 0.59557 0.66585 0.0
C223 C 0.83170 0.56665 0.56178 0.0
C224 C 0.82121 0.57183 0.53057 0.0
C225 C 0.80192 0.57051 0.53177 0.0
C226 C 0.79146 0.57871 0.50326 0.0
C227 C 0.80021 0.58635 0.47174 0.0
C228 C 0.81952 0.58619 0.46919 0.0
C229 C 0.83003 0.57894 0.49868 0.0
C230 C 0.84937 0.58004 0.49748 0.0
C231 C 0.79317 0.56228 0.56273 0.0
C232 C 0.78964 0.59467 0.44345 0.0
C233 C 0.77225 0.57953 0.50633 0.0
C234 C 0.74972 0.60001 0.51463 0.0
C235 C 0.73782 0.58485 0.50884 0.0
C236 C 0.71869 0.58748 0.50684 0.0
C237 C 0.71151 0.60526 0.51062 0.0
C238 C 0.72342 0.62041 0.51670 0.0
C239 C 0.74254 0.61777 0.51869 0.0
C240 C 0.69239 0.60785 0.50827 0.0
C241 C 0.68057 0.59265 0.50204 0.0
C242 C 0.82841 0.59413 0.43821 0.0
C243 C 0.83872 0.58675 0.38137 0.0
C244 C 0.84494 0.60513 0.37905 0.0
C245 C 0.85741 0.61038 0.35097 0.0
C246 C 0.86367 0.59722 0.32537 0.0
C247 C 0.85741 0.57886 0.32768 0.0
C248 C 0.84492 0.57361 0.35571 0.0
C249 C 0.87627 0.60236 0.29747 0.0
C250 C 0.88255 0.58906 0.27221 0.0
O251 O 0.83225 0.58245 0.58303 0.0
O252 O 0.82717 0.58141 0.40982 0.0
O253 O 0.76846 0.59750 0.51546 0.0
H254 H 0.87757 0.60581 0.72040 0.0
H255 H 0.88569 0.56499 0.71330 0.0
H256 H 0.86969 0.55031 0.66046 0.0
H257 H 0.84884 0.55248 0.60657 0.0
H258 H 0.84201 0.60937 0.62801 0.0
H259 H 0.86283 0.60720 0.68184 0.0
H260 H 0.82534 0.55589 0.57629 0.0
H261 H 0.84490 0.56304 0.55359 0.0
H262 H 0.85335 0.58853 0.47538 0.0
H263 H 0.85472 0.56695 0.49371 0.0
H264 H 0.85430 0.58554 0.52253 0.0
H265 H 0.80220 0.56217 0.58546 0.0
H266 H 0.78940 0.54878 0.55600 0.0
H267 H 0.78144 0.56959 0.56958 0.0
H268 H 0.79833 0.60035 0.42334 0.0
H269 H 0.78173 0.60500 0.45519 0.0
H270 H 0.78098 0.58486 0.43110 0.0
H271 H 0.76612 0.57615 0.48082 0.0
H272 H 0.76756 0.57064 0.52719 0.0
H273 H 0.74318 0.57170 0.50590 0.0
H274 H 0.70986 0.57627 0.50248 0.0
H275 H 0.71808 0.63357 0.51962 0.0
H276 H 0.75140 0.62898 0.52304 0.0
H277 H 0.68699 0.62099 0.51108 0.0
H278 H 0.68601 0.57953 0.49925 0.0
H279 H 0.82218 0.60636 0.43020 0.0
H280 H 0.84220 0.59661 0.44491 0.0
H281 H 0.84039 0.61480 0.39823 0.0
H282 H 0.86207 0.62398 0.34921 0.0
H283 H 0.86207 0.56914 0.30870 0.0
H284 H 0.84035 0.56000 0.35761 0.0
H285 H 0.88095 0.61594 0.29554 0.0
H286 H 0.87784 0.57549 0.27423 0.0
C287 C 0.43444 0.88982 0.72395 0.0
C288 C 0.45028 0.88646 0.70271 0.0
C289 C 0.44917 0.87457 0.67178 0.0
C290 C 0.46492 0.87104 0.65034 0.0
C291 C 0.46369 0.85908 0.61949 0.0
C292 C 0.44673 0.85068 0.61021 0.0
C293 C 0.43099 0.85425 0.63157 0.0
C294 C 0.43222 0.86619 0.66237 0.0
C295 C 0.46116 0.83904 0.55876 0.0
C296 C 0.45599 0.82848 0.52759 0.0
C297 C 0.45732 0.80922 0.52895 0.0
C298 C 0.44912 0.79860 0.50045 0.0
C299 C 0.44148 0.80721 0.46880 0.0
C300 C 0.44163 0.82653 0.46610 0.0
C301 C 0.44887 0.83718 0.49557 0.0
C302 C 0.44775 0.85649 0.49421 0.0
C303 C 0.46556 0.80062 0.56005 0.0
C304 C 0.43317 0.79648 0.44052 0.0
C305 C 0.44832 0.77936 0.50366 0.0
C306 C 0.42787 0.75626 0.51195 0.0
C307 C 0.44303 0.74478 0.50639 0.0
C308 C 0.44042 0.72559 0.50452 0.0
C309 C 0.42264 0.71791 0.50820 0.0
C310 C 0.40748 0.72940 0.51405 0.0
C311 C 0.41010 0.74860 0.51592 0.0
C312 C 0.42006 0.69873 0.50597 0.0
C313 C 0.43527 0.68733 0.49996 0.0
C314 C 0.43369 0.83529 0.43499 0.0
C315 C 0.44106 0.84592 0.37812 0.0
C316 C 0.42268 0.85165 0.37560 0.0
C317 C 0.41741 0.86405 0.34738 0.0
C318 C 0.43057 0.87072 0.32184 0.0
C319 C 0.44894 0.86494 0.32436 0.0
C320 C 0.45419 0.85253 0.35253 0.0
C321 C 0.42543 0.88324 0.29380 0.0
C322 C 0.43871 0.88993 0.26860 0.0
O323 O 0.44536 0.83912 0.57987 0.0
O324 O 0.44641 0.83445 0.40671 0.0
O325 O 0.43036 0.77506 0.51266 0.0
H326 H 0.42196 0.88351 0.71669 0.0
H327 H 0.46278 0.89274 0.70988 0.0
H328 H 0.47747 0.87726 0.65729 0.0
H329 H 0.47531 0.85646 0.60354 0.0
H330 H 0.41843 0.84806 0.62454 0.0
H331 H 0.42058 0.86882 0.67824 0.0
H332 H 0.47192 0.83294 0.57341 0.0
H333 H 0.46476 0.85236 0.55051 0.0
H334 H 0.43927 0.86029 0.47201 0.0
H335 H 0.46084 0.86221 0.49051 0.0
H336 H 0.44225 0.86123 0.51917 0.0
H337 H 0.46566 0.80961 0.58271 0.0
H338 H 0.47905 0.79724 0.55346 0.0
H339 H 0.45825 0.78868 0.56693 0.0
H340 H 0.42748 0.80507 0.42029 0.0
H341 H 0.42285 0.78827 0.45223 0.0
H342 H 0.44299 0.78811 0.42832 0.0
H343 H 0.45171 0.77337 0.47823 0.0
H344 H 0.45722 0.77486 0.52463 0.0
H345 H 0.45618 0.75050 0.50352 0.0
H346 H 0.45163 0.71706 0.50032 0.0
H347 H 0.39433 0.72371 0.51690 0.0
H348 H 0.39889 0.75714 0.52010 0.0
H349 H 0.40693 0.69297 0.50871 0.0
H350 H 0.44839 0.69313 0.49725 0.0
H351 H 0.42146 0.82874 0.42691 0.0
H352 H 0.43119 0.84900 0.44155 0.0
H353 H 0.41301 0.84680 0.39473 0.0
H354 H 0.40382 0.86834 0.34546 0.0
H355 H 0.45865 0.86990 0.30543 0.0
H356 H 0.46780 0.84832 0.35458 0.0
H357 H 0.41184 0.88756 0.29172 0.0
H358 H 0.45229 0.88558 0.27078 0.0
C359 C 0.37061 0.43703 0.46610 0.0
C360 C 0.42638 0.49458 0.50110 0.0
C361 C 0.41673 0.48111 0.49081 0.0
C362 C 0.39943 0.48032 0.49637 0.0
C363 C 0.39204 0.49371 0.51311 0.0
C364 C 0.40170 0.50750 0.52321 0.0
C365 C 0.41880 0.50781 0.51790 0.0
H366 H 0.37305 0.46506 0.52485 0.0
H367 H 0.40196 0.46026 0.44229 0.0
H368 H 0.38691 0.43659 0.42711 0.0
H369 H 0.36432 0.42766 0.45939 0.0
H370 H 0.42189 0.47220 0.47977 0.0
H371 H 0.38055 0.49342 0.51756 0.0
H372 H 0.39658 0.51659 0.53364 0.0
H373 H 0.42528 0.51688 0.52556 0.0
C374 C 0.36657 0.44543 0.49508 0.0
C375 C 0.37588 0.45941 0.50499 0.0
C376 C 0.38947 0.46520 0.48562 0.0
C377 C 0.39316 0.45653 0.45601 0.0
C378 C 0.38403 0.44248 0.44667 0.0
C379 C 0.56768 0.36451 0.51416 0.0
C380 C 0.53999 0.44062 0.50625 0.0
C381 C 0.54308 0.42372 0.50698 0.0
C382 C 0.55883 0.41743 0.51563 0.0
C383 C 0.57163 0.42888 0.52344 0.0
C384 C 0.56854 0.44602 0.52319 0.0
C385 C 0.55293 0.45189 0.51399 0.0
H386 H 0.58581 0.39998 0.49856 0.0
H387 H 0.53911 0.39140 0.53243 0.0
H388 H 0.54372 0.36300 0.53005 0.0
H389 H 0.56960 0.35300 0.51400 0.0
H390 H 0.53439 0.41621 0.50152 0.0
H391 H 0.58233 0.42505 0.52887 0.0
H392 H 0.57706 0.45359 0.52927 0.0
H393 H 0.55106 0.46340 0.51296 0.0
C394 C 0.58009 0.37547 0.50472 0.0
C395 C 0.57727 0.39258 0.50510 0.0
C396 C 0.56178 0.39895 0.51516 0.0
C397 C 0.54945 0.38751 0.52505 0.0
C398 C 0.55227 0.37052 0.52405 0.0
C399 C 0.64888 0.59704 0.46954 0.0
C400 C 0.59336 0.53875 0.49997 0.0
C401 C 0.60287 0.55258 0.49136 0.0
C402 C 0.62037 0.55273 0.49409 0.0
C403 C 0.62812 0.53831 0.50618 0.0
C404 C 0.61858 0.52417 0.51454 0.0
C405 C 0.60130 0.52448 0.51213 0.0
H406 H 0.64834 0.56572 0.52138 0.0
H407 H 0.61594 0.57595 0.44583 0.0
H408 H 0.63089 0.60010 0.43387 0.0
H409 H 0.65510 0.60665 0.46406 0.0
H410 H 0.59748 0.56217 0.48345 0.0
H411 H 0.63976 0.53813 0.50869 0.0
H412 H 0.62389 0.51443 0.52181 0.0
H413 H 0.59495 0.51512 0.51866 0.0
C414 C 0.65398 0.58689 0.49551 0.0
C415 C 0.64478 0.57257 0.50356 0.0
C416 C 0.63021 0.56822 0.48536 0.0
C417 C 0.62543 0.57868 0.45878 0.0
C418 C 0.63449 0.59303 0.45132 0.0
C419 C 0.43422 0.65807 0.46230 0.0
C420 C 0.48910 0.60151 0.50036 0.0
C421 C 0.47626 0.61140 0.48894 0.0
C422 C 0.47560 0.62851 0.49650 0.0
C423 C 0.48843 0.63545 0.51645 0.0
C424 C 0.50159 0.62554 0.52774 0.0
C425 C 0.50177 0.60862 0.52037 0.0
H426 H 0.45979 0.65403 0.52542 0.0
H427 H 0.45768 0.62746 0.43882 0.0
H428 H 0.43498 0.64288 0.42139 0.0
H429 H 0.42526 0.66452 0.45474 0.0
H430 H 0.46772 0.60655 0.47574 0.0
H431 H 0.48820 0.64679 0.52226 0.0
H432 H 0.51034 0.63037 0.54037 0.0
H433 H 0.51038 0.60195 0.52880 0.0
C434 C 0.44152 0.66130 0.49313 0.0
C435 C 0.45489 0.65175 0.50430 0.0
C436 C 0.46115 0.63873 0.48436 0.0
C437 C 0.45359 0.63586 0.45291 0.0
C438 C 0.44015 0.64522 0.44226 0.0
C439 C 0.09005 0.45435 0.78035 0.0
C440 C 0.09632 0.45967 0.81606 0.0
C441 C 0.11458 0.45616 0.82702 0.0
C442 C 0.12656 0.44733 0.80229 0.0
C443 C 0.04861 0.49503 0.91543 0.0
C444 C 0.10204 0.44551 0.75561 0.0
C445 C 0.08435 0.46850 0.84082 0.0
C446 C 0.07242 0.47734 0.86565 0.0
C447 C 0.06050 0.48618 0.89052 0.0
C448 C 0.12030 0.44200 0.76658 0.0
H449 H 0.07654 0.45695 0.77222 0.0
H450 H 0.11922 0.46009 0.85345 0.0
H451 H 0.14008 0.44473 0.81041 0.0
H452 H 0.09740 0.44157 0.72918 0.0
C453 C 0.55741 0.11706 0.79554 0.0
C454 C 0.56782 0.10588 0.81963 0.0
C455 C 0.58717 0.10695 0.81904 0.0
C456 C 0.59611 0.11919 0.79439 0.0
C457 C 0.53236 0.05682 0.91851 0.0
C458 C 0.56634 0.12930 0.77089 0.0
C459 C 0.55891 0.09363 0.84431 0.0
C460 C 0.55003 0.08137 0.86902 0.0
C461 C 0.54118 0.06910 0.89376 0.0
C462 C 0.58570 0.13037 0.77031 0.0
H463 H 0.54308 0.11627 0.79597 0.0
H464 H 0.59488 0.09867 0.83686 0.0
H465 H 0.61043 0.11997 0.79397 0.0
H466 H 0.55864 0.13757 0.75306 0.0
C467 C 0.93131 0.58039 0.21144 0.0
C468 C 0.92409 0.56820 0.18439 0.0
C469 C 0.90499 0.56493 0.18216 0.0
C470 C 0.89309 0.57383 0.20696 0.0
C471 C 0.97143 0.53245 0.08486 0.0
C472 C 0.91941 0.58929 0.23625 0.0
C473 C 0.93597 0.55929 0.15956 0.0
C474 C 0.94781 0.55035 0.13469 0.0
C475 C 0.95963 0.54141 0.10979 0.0
C476 C 0.90030 0.58602 0.23401 0.0
H477 H 0.94545 0.58282 0.21309 0.0
H478 H 0.89964 0.55591 0.16215 0.0
H479 H 0.87895 0.57141 0.20530 0.0
H480 H 0.92475 0.59831 0.25627 0.0
C481 C 0.44038 0.93102 0.18087 0.0
C482 C 0.45973 0.93226 0.18068 0.0
C483 C 0.47012 0.92133 0.20526 0.0
C484 C 0.46117 0.90915 0.23004 0.0
C485 C 0.49579 0.98087 0.08178 0.0
C486 C 0.43144 0.91884 0.20565 0.0
C487 C 0.46869 0.94443 0.15592 0.0
C488 C 0.47770 0.95659 0.13119 0.0
C489 C 0.48673 0.96873 0.10647 0.0
C490 C 0.44183 0.90790 0.23023 0.0
H491 H 0.43268 0.93911 0.16267 0.0
H492 H 0.48444 0.92225 0.20513 0.0
H493 H 0.46888 0.90105 0.24823 0.0
H494 H 0.41712 0.91792 0.20579 0.0
C495 C 0.58739 0.10569 0.19155 0.0
C496 C 0.56826 0.10665 0.18569 0.0
C497 C 0.55791 0.11982 0.20489 0.0
C498 C 0.56670 0.13203 0.22996 0.0
C499 C 0.53284 0.05795 0.08552 0.0
C500 C 0.59617 0.11791 0.21662 0.0
C501 C 0.55945 0.09445 0.16063 0.0
C502 C 0.55061 0.08227 0.13558 0.0
C503 C 0.54174 0.07011 0.11054 0.0
C504 C 0.58583 0.13107 0.23583 0.0
H505 H 0.59505 0.09595 0.17733 0.0
H506 H 0.54375 0.12052 0.20057 0.0
H507 H 0.55903 0.14177 0.24417 0.0
H508 H 0.61034 0.11720 0.22096 0.0
C509 C 0.11430 0.46566 0.18485 0.0
C510 C 0.09576 0.45995 0.18214 0.0
C511 C 0.08922 0.44530 0.20439 0.0
C512 C 0.10120 0.43638 0.22936 0.0
C513 C 0.04756 0.49546 0.08246 0.0
C514 C 0.12629 0.45674 0.20982 0.0
C515 C 0.08375 0.46886 0.15718 0.0
C516 C 0.07171 0.47774 0.13226 0.0
C517 C 0.05965 0.48661 0.10735 0.0
C518 C 0.11974 0.44209 0.23208 0.0
H519 H 0.11915 0.47650 0.16837 0.0
H520 H 0.07549 0.44107 0.20239 0.0
H521 H 0.09635 0.42554 0.24584 0.0
H522 H 0.14001 0.46097 0.21182 0.0
C523 C 0.90547 0.56537 0.82132 0.0
C524 C 0.92464 0.56789 0.81830 0.0
C525 C 0.93191 0.57943 0.79026 0.0
C526 C 0.92002 0.58844 0.76523 0.0
C527 C 0.97247 0.53200 0.91815 0.0
C528 C 0.89358 0.57438 0.79629 0.0
C529 C 0.93655 0.55890 0.84331 0.0
C530 C 0.94850 0.54992 0.86828 0.0
C531 C 0.96047 0.54096 0.89323 0.0
C532 C 0.90085 0.58591 0.76824 0.0
H533 H 0.90009 0.55683 0.84208 0.0
H534 H 0.94610 0.58129 0.78801 0.0
H535 H 0.92541 0.59698 0.74447 0.0
H536 H 0.87939 0.57251 0.79852 0.0
C537 C 0.47014 0.91999 0.79106 0.0
C538 C 0.45976 0.93131 0.81459 0.0
C539 C 0.44041 0.93056 0.81305 0.0
C540 C 0.43143 0.91848 0.78800 0.0
C541 C 0.49542 0.97970 0.91504 0.0
C542 C 0.46115 0.90792 0.76600 0.0
C543 C 0.46873 0.94339 0.83966 0.0
C544 C 0.47765 0.95549 0.86476 0.0
C545 C 0.48655 0.96759 0.88989 0.0
C546 C 0.44179 0.90716 0.76447 0.0
H547 H 0.48446 0.92055 0.79219 0.0
H548 H 0.43273 0.93894 0.83046 0.0
H549 H 0.41710 0.91793 0.78688 0.0
H550 H 0.46883 0.89954 0.74858 0.0
