data_{}
_symmetry_space_group_name_H-M    P1
_symmetry_Int_Tables_number       1
_symmetry_cell_setting            triclinic
loop_
_symmetry_equiv_pos_as_xyz
'x, y, z'
_cell_length_a     75.453
_cell_length_b     75.406
_cell_length_c     37.465
_cell_angle_alpha  89.850
_cell_angle_beta   90.389
_cell_angle_gamma  69.828
loop_
_atom_site_label
_atom_site_type_symbol
_atom_site_fract_x
_atom_site_fract_y
_atom_site_fract_z
_atom_type_partial_charge
Mg0 Mg 0.00796 0.50698 0.00130 0.0
C1 C 0.99079 0.49131 0.06705 0.0
C2 C 0.02513 0.52265 0.93555 0.0
O3 O 0.02656 0.50927 0.04103 0.0
O4 O 0.01245 0.52087 0.09237 0.0
O5 O 0.99525 0.49307 0.03578 0.0
O6 O 0.99561 0.49868 0.09431 0.0
O7 O 0.98936 0.50469 0.96157 0.0
O8 O 0.00347 0.49309 0.91023 0.0
O9 O 0.02067 0.52088 0.96681 0.0
C10 C 0.02441 0.51987 0.06689 0.0
C11 C 0.99151 0.49408 0.93571 0.0
O12 O 0.02031 0.51528 0.90829 0.0
Mg13 Mg 0.50781 0.00705 0.00130 0.0
C14 C 0.51318 0.03170 0.06709 0.0
C15 C 0.50245 0.98240 0.93550 0.0
O16 O 0.49517 0.99595 0.04070 0.0
O17 O 0.51100 0.99027 0.09254 0.0
O18 O 0.51071 0.02774 0.03577 0.0
O19 O 0.51307 0.02165 0.09440 0.0
O20 O 0.52046 0.01815 0.96189 0.0
O21 O 0.50463 0.02384 0.91006 0.0
O22 O 0.50492 0.98636 0.96682 0.0
C23 C 0.50171 0.98572 0.06680 0.0
C24 C 0.51392 0.02838 0.93579 0.0
O25 O 0.50256 0.99245 0.90820 0.0
H26 H 0.50990 0.55413 0.53581 0.0
H27 H 0.46689 0.52302 0.55407 0.0
H28 H 0.48611 0.50606 0.55327 0.0
H29 H 0.47525 0.53626 0.50293 0.0
H30 H 0.49391 0.51871 0.49925 0.0
H31 H 0.48628 0.54343 0.55845 0.0
H32 H 0.50509 0.52624 0.55371 0.0
H33 H 0.51310 0.53208 0.47662 0.0
H34 H 0.52252 0.54753 0.48108 0.0
H35 H 0.48495 0.49713 0.47310 0.0
H36 H 0.47349 0.48344 0.47732 0.0
H37 H 0.45529 0.52511 0.48036 0.0
H38 H 0.44638 0.50917 0.47815 0.0
H39 H 0.47655 0.56754 0.51586 0.0
H40 H 0.48637 0.56140 0.47881 0.0
H41 H 0.50598 0.45987 0.46679 0.0
H42 H 0.54899 0.49098 0.44853 0.0
H43 H 0.52978 0.50794 0.44933 0.0
H44 H 0.54063 0.47774 0.49967 0.0
H45 H 0.52197 0.49529 0.50335 0.0
H46 H 0.52961 0.47057 0.44414 0.0
H47 H 0.51080 0.48775 0.44889 0.0
H48 H 0.50278 0.48192 0.52598 0.0
H49 H 0.49336 0.46647 0.52152 0.0
H50 H 0.53094 0.51687 0.52950 0.0
H51 H 0.54239 0.53056 0.52528 0.0
H52 H 0.56059 0.48889 0.52224 0.0
H53 H 0.56950 0.50483 0.52444 0.0
H54 H 0.53933 0.44646 0.48674 0.0
H55 H 0.52951 0.45259 0.52379 0.0
C56 C 0.47634 0.51478 0.53841 0.0
C57 C 0.48506 0.52667 0.51620 0.0
C58 C 0.49514 0.53596 0.54099 0.0
C59 C 0.51848 0.53839 0.49383 0.0
C60 C 0.48044 0.49005 0.49031 0.0
C61 C 0.45099 0.51659 0.49446 0.0
C62 C 0.48833 0.56485 0.50309 0.0
C63 C 0.53955 0.49922 0.46419 0.0
C64 C 0.53082 0.48733 0.48639 0.0
C65 C 0.52074 0.47804 0.46160 0.0
C66 C 0.49740 0.47561 0.50877 0.0
C67 C 0.53544 0.52395 0.51229 0.0
C68 C 0.56489 0.49741 0.50814 0.0
C69 C 0.52755 0.44915 0.49950 0.0
N70 N 0.46729 0.50366 0.51547 0.0
N71 N 0.50360 0.54853 0.52112 0.0
N72 N 0.54859 0.51034 0.48712 0.0
N73 N 0.51228 0.46547 0.48148 0.0
C74 C 0.10463 0.59188 0.26246 0.0
C75 C 0.11447 0.57406 0.28508 0.0
C76 C 0.12667 0.57520 0.31749 0.0
C77 C 0.13665 0.55749 0.34032 0.0
C78 C 0.14887 0.55877 0.37265 0.0
C79 C 0.15110 0.57775 0.38200 0.0
C80 C 0.14108 0.59546 0.35926 0.0
C81 C 0.12888 0.59418 0.32699 0.0
C82 C 0.16920 0.56145 0.43624 0.0
C83 C 0.17840 0.56717 0.46879 0.0
C84 C 0.19926 0.56551 0.46757 0.0
C85 C 0.20733 0.57464 0.49725 0.0
C86 C 0.19530 0.58329 0.53008 0.0
C87 C 0.17496 0.58329 0.53274 0.0
C88 C 0.16649 0.57524 0.50201 0.0
C89 C 0.14565 0.57665 0.50324 0.0
C90 C 0.21151 0.55619 0.43533 0.0
C91 C 0.20344 0.59254 0.55953 0.0
C92 C 0.22733 0.57538 0.49404 0.0
C93 C 0.24367 0.59817 0.48508 0.0
C94 C 0.26177 0.58104 0.49136 0.0
C95 C 0.28103 0.58382 0.49342 0.0
C96 C 0.28213 0.60372 0.48920 0.0
C97 C 0.26402 0.62084 0.48262 0.0
C98 C 0.24477 0.61806 0.48056 0.0
C99 C 0.30140 0.60646 0.49164 0.0
C100 C 0.31943 0.58928 0.49839 0.0
C101 C 0.16266 0.59228 0.56499 0.0
C102 C 0.15447 0.58408 0.62453 0.0
C103 C 0.14120 0.60478 0.62667 0.0
C104 C 0.12610 0.61079 0.65593 0.0
C105 C 0.12429 0.59607 0.68289 0.0
C106 C 0.13761 0.57539 0.68075 0.0
C107 C 0.15272 0.56939 0.65155 0.0
C108 C 0.10911 0.60195 0.71197 0.0
C109 C 0.10733 0.58708 0.73858 0.0
O110 O 0.16285 0.57920 0.41379 0.0
O111 O 0.16862 0.57798 0.59487 0.0
O112 O 0.22478 0.59552 0.48423 0.0
H113 H 0.10641 0.60584 0.26980 0.0
H114 H 0.11273 0.56007 0.27784 0.0
H115 H 0.13500 0.54344 0.33331 0.0
H116 H 0.15625 0.54570 0.38963 0.0
H117 H 0.14270 0.60951 0.36635 0.0
H118 H 0.12149 0.60727 0.31009 0.0
H119 H 0.17983 0.54931 0.42124 0.0
H120 H 0.15656 0.55751 0.44484 0.0
H121 H 0.13835 0.58621 0.52621 0.0
H122 H 0.14477 0.56199 0.50738 0.0
H123 H 0.13842 0.58286 0.47697 0.0
H124 H 0.20200 0.55615 0.41157 0.0
H125 H 0.22041 0.54101 0.44258 0.0
H126 H 0.22124 0.56430 0.42807 0.0
H127 H 0.19218 0.59900 0.58046 0.0
H128 H 0.20803 0.60407 0.54711 0.0
H129 H 0.21618 0.58144 0.57260 0.0
H130 H 0.23505 0.57153 0.52077 0.0
H131 H 0.23553 0.56535 0.47238 0.0
H132 H 0.26091 0.56632 0.49463 0.0
H133 H 0.29445 0.57116 0.49816 0.0
H134 H 0.26486 0.63557 0.47936 0.0
H135 H 0.23132 0.63072 0.47584 0.0
H136 H 0.30231 0.62116 0.48850 0.0
H137 H 0.31847 0.57460 0.50150 0.0
H138 H 0.16479 0.60596 0.57319 0.0
H139 H 0.14718 0.59519 0.55795 0.0
H140 H 0.14247 0.61559 0.60647 0.0
H141 H 0.11622 0.62610 0.65756 0.0
H142 H 0.13623 0.56452 0.70075 0.0
H143 H 0.16251 0.55406 0.64977 0.0
H144 H 0.09921 0.61724 0.71377 0.0
H145 H 0.11726 0.57180 0.73667 0.0
C146 C 0.59128 0.10483 0.26757 0.0
C147 C 0.60909 0.10231 0.29026 0.0
C148 C 0.60795 0.11523 0.32255 0.0
C149 C 0.62566 0.11293 0.34545 0.0
C150 C 0.62438 0.12597 0.37765 0.0
C151 C 0.60541 0.14127 0.38683 0.0
C152 C 0.58771 0.14352 0.36402 0.0
C153 C 0.58899 0.13051 0.33186 0.0
C154 C 0.62171 0.14799 0.44104 0.0
C155 C 0.61600 0.16106 0.47347 0.0
C156 C 0.61766 0.18079 0.47208 0.0
C157 C 0.60854 0.19509 0.50161 0.0
C158 C 0.59989 0.18894 0.53447 0.0
C159 C 0.59989 0.16857 0.53731 0.0
C160 C 0.60793 0.15463 0.50672 0.0
C161 C 0.60651 0.13475 0.50812 0.0
C162 C 0.62698 0.18670 0.43981 0.0
C163 C 0.59065 0.20339 0.56378 0.0
C164 C 0.60781 0.21562 0.49822 0.0
C165 C 0.58504 0.24771 0.48892 0.0
C166 C 0.60216 0.25399 0.49519 0.0
C167 C 0.59939 0.27517 0.49707 0.0
C168 C 0.57950 0.29002 0.49267 0.0
C169 C 0.56239 0.28372 0.48609 0.0
C170 C 0.56516 0.26254 0.48423 0.0
C171 C 0.57677 0.31117 0.49491 0.0
C172 C 0.59394 0.31735 0.50165 0.0
C173 C 0.59090 0.16240 0.56959 0.0
C174 C 0.59908 0.14839 0.62927 0.0
C175 C 0.57840 0.14939 0.63135 0.0
C176 C 0.57239 0.13836 0.66069 0.0
C177 C 0.58710 0.12632 0.68779 0.0
C178 C 0.60777 0.12538 0.68572 0.0
C179 C 0.61377 0.13643 0.65643 0.0
C180 C 0.58122 0.11512 0.71695 0.0
C181 C 0.59608 0.10300 0.74370 0.0
O182 O 0.60397 0.15394 0.41850 0.0
O183 O 0.60519 0.15842 0.59954 0.0
O184 O 0.58768 0.22699 0.48826 0.0
H185 H 0.57733 0.11622 0.27477 0.0
H186 H 0.62307 0.09094 0.28315 0.0
H187 H 0.63969 0.10161 0.33856 0.0
H188 H 0.63745 0.12428 0.39468 0.0
H189 H 0.57367 0.15482 0.37098 0.0
H190 H 0.57591 0.13219 0.31492 0.0
H191 H 0.63384 0.15030 0.42606 0.0
H192 H 0.62564 0.13261 0.44979 0.0
H193 H 0.59695 0.13398 0.53107 0.0
H194 H 0.62116 0.12374 0.51239 0.0
H195 H 0.60030 0.13187 0.48186 0.0
H196 H 0.62701 0.17721 0.41614 0.0
H197 H 0.64215 0.18511 0.44712 0.0
H198 H 0.61887 0.20205 0.43240 0.0
H199 H 0.58419 0.19653 0.58475 0.0
H200 H 0.57913 0.21596 0.55122 0.0
H201 H 0.60175 0.20844 0.57683 0.0
H202 H 0.61166 0.22061 0.52492 0.0
H203 H 0.61783 0.21696 0.47658 0.0
H204 H 0.61687 0.24296 0.49860 0.0
H205 H 0.61204 0.27985 0.50179 0.0
H206 H 0.54767 0.29473 0.48270 0.0
H207 H 0.55251 0.25784 0.47951 0.0
H208 H 0.56208 0.32224 0.49164 0.0
H209 H 0.60861 0.30625 0.50489 0.0
H210 H 0.57723 0.17394 0.57766 0.0
H211 H 0.58798 0.14894 0.56266 0.0
H212 H 0.56759 0.15818 0.61105 0.0
H213 H 0.55709 0.13903 0.66228 0.0
H214 H 0.61863 0.11646 0.70581 0.0
H215 H 0.62909 0.13566 0.65470 0.0
H216 H 0.56593 0.11576 0.71871 0.0
H217 H 0.61135 0.10240 0.74184 0.0
C218 C 0.91076 0.42358 0.74011 0.0
C219 C 0.91321 0.40575 0.71785 0.0
C220 C 0.90022 0.40690 0.68542 0.0
C221 C 0.90245 0.38918 0.66294 0.0
C222 C 0.88934 0.39047 0.63059 0.0
C223 C 0.87403 0.40945 0.62085 0.0
C224 C 0.87184 0.42716 0.64324 0.0
C225 C 0.88493 0.42587 0.67554 0.0
C226 C 0.86717 0.39315 0.56695 0.0
C227 C 0.85403 0.39886 0.53428 0.0
C228 C 0.83431 0.39721 0.53553 0.0
C229 C 0.81995 0.40633 0.50567 0.0
C230 C 0.82601 0.41499 0.47267 0.0
C231 C 0.84636 0.41498 0.47001 0.0
C232 C 0.86038 0.40694 0.50090 0.0
C233 C 0.88024 0.40835 0.49964 0.0
C234 C 0.82848 0.38789 0.56796 0.0
C235 C 0.81150 0.42423 0.44303 0.0
C236 C 0.79943 0.40707 0.50886 0.0
C237 C 0.76739 0.42986 0.51737 0.0
C238 C 0.76109 0.41273 0.51143 0.0
C239 C 0.73992 0.41552 0.50931 0.0
C240 C 0.72509 0.43542 0.51314 0.0
C241 C 0.73141 0.45254 0.51938 0.0
C242 C 0.75258 0.44975 0.52149 0.0
C243 C 0.70395 0.43816 0.51064 0.0
C244 C 0.69775 0.42098 0.50424 0.0
C245 C 0.85245 0.42397 0.43757 0.0
C246 C 0.86630 0.41578 0.37821 0.0
C247 C 0.86530 0.43648 0.37565 0.0
C248 C 0.87626 0.44249 0.34627 0.0
C249 C 0.88821 0.42776 0.31961 0.0
C250 C 0.88915 0.40708 0.32215 0.0
C251 C 0.87818 0.40108 0.35148 0.0
C252 C 0.89934 0.43364 0.29041 0.0
C253 C 0.91138 0.41877 0.26410 0.0
O254 O 0.86128 0.41090 0.58904 0.0
O255 O 0.85635 0.40968 0.40798 0.0
O256 O 0.78810 0.42722 0.51827 0.0
H257 H 0.89936 0.43754 0.73250 0.0
H258 H 0.92459 0.39177 0.72538 0.0
H259 H 0.91379 0.37514 0.67024 0.0
H260 H 0.89098 0.37739 0.61387 0.0
H261 H 0.86053 0.44121 0.63587 0.0
H262 H 0.88330 0.43897 0.69218 0.0
H263 H 0.86490 0.38101 0.58218 0.0
H264 H 0.88252 0.38921 0.55842 0.0
H265 H 0.88095 0.41791 0.47648 0.0
H266 H 0.89123 0.39369 0.49579 0.0
H267 H 0.88318 0.41456 0.52579 0.0
H268 H 0.83802 0.38785 0.59172 0.0
H269 H 0.83005 0.37270 0.56101 0.0
H270 H 0.81316 0.39600 0.57506 0.0
H271 H 0.81831 0.43069 0.42197 0.0
H272 H 0.79896 0.43576 0.45522 0.0
H273 H 0.80641 0.41313 0.43019 0.0
H274 H 0.79437 0.40322 0.48221 0.0
H275 H 0.79815 0.39705 0.53073 0.0
H276 H 0.77210 0.39802 0.50845 0.0
H277 H 0.73522 0.40285 0.50483 0.0
H278 H 0.72042 0.46726 0.52234 0.0
H279 H 0.75730 0.46241 0.52596 0.0
H280 H 0.69290 0.45286 0.51349 0.0
H281 H 0.70883 0.40630 0.50142 0.0
H282 H 0.84090 0.43766 0.42911 0.0
H283 H 0.86593 0.42689 0.44456 0.0
H284 H 0.85657 0.44729 0.39563 0.0
H285 H 0.87558 0.45779 0.34433 0.0
H286 H 0.89802 0.39622 0.30238 0.0
H287 H 0.87895 0.38576 0.35356 0.0
H288 H 0.89870 0.44894 0.28830 0.0
H289 H 0.91198 0.40349 0.26631 0.0
C290 C 0.42302 0.90969 0.73500 0.0
C291 C 0.44083 0.89991 0.71287 0.0
C292 C 0.43969 0.88778 0.68054 0.0
C293 C 0.45740 0.87786 0.65819 0.0
C294 C 0.45612 0.86571 0.62595 0.0
C295 C 0.43715 0.86349 0.61618 0.0
C296 C 0.41945 0.87345 0.63844 0.0
C297 C 0.42073 0.88558 0.67064 0.0
C298 C 0.45345 0.84552 0.56247 0.0
C299 C 0.44774 0.83640 0.52987 0.0
C300 C 0.44940 0.81552 0.53131 0.0
C301 C 0.44028 0.80751 0.50150 0.0
C302 C 0.43163 0.81963 0.46837 0.0
C303 C 0.43163 0.84000 0.46553 0.0
C304 C 0.43967 0.84840 0.49637 0.0
C305 C 0.43825 0.86925 0.49492 0.0
C306 C 0.45872 0.80318 0.56387 0.0
C307 C 0.42239 0.81156 0.43878 0.0
C308 C 0.43955 0.78749 0.50486 0.0
C309 C 0.41678 0.77111 0.51346 0.0
C310 C 0.43390 0.75301 0.50772 0.0
C311 C 0.43113 0.73375 0.50576 0.0
C312 C 0.41124 0.73263 0.50954 0.0
C313 C 0.39413 0.75073 0.51559 0.0
C314 C 0.39691 0.76999 0.51754 0.0
C315 C 0.40851 0.71336 0.50721 0.0
C316 C 0.42568 0.69533 0.50101 0.0
C317 C 0.42264 0.85238 0.43297 0.0
C318 C 0.43083 0.86073 0.37355 0.0
C319 C 0.41014 0.87401 0.37083 0.0
C320 C 0.40413 0.88919 0.34130 0.0
C321 C 0.41884 0.89108 0.31466 0.0
C322 C 0.43951 0.87775 0.31737 0.0
C323 C 0.44551 0.86256 0.34684 0.0
C324 C 0.41296 0.90634 0.28531 0.0
C325 C 0.42782 0.90820 0.25902 0.0
O326 O 0.43571 0.85182 0.58447 0.0
O327 O 0.43693 0.84650 0.40346 0.0
O328 O 0.41942 0.79001 0.51420 0.0
H329 H 0.40907 0.90792 0.72737 0.0
H330 H 0.45481 0.90163 0.72041 0.0
H331 H 0.47144 0.87949 0.66551 0.0
H332 H 0.46919 0.85837 0.60933 0.0
H333 H 0.40541 0.87185 0.63105 0.0
H334 H 0.40765 0.89294 0.68717 0.0
H335 H 0.46558 0.83484 0.57783 0.0
H336 H 0.45738 0.85819 0.55385 0.0
H337 H 0.42870 0.87661 0.47168 0.0
H338 H 0.45290 0.87015 0.49111 0.0
H339 H 0.43204 0.87642 0.52099 0.0
H340 H 0.45876 0.81264 0.58755 0.0
H341 H 0.47389 0.79430 0.55703 0.0
H342 H 0.45061 0.79342 0.57103 0.0
H343 H 0.41594 0.82288 0.41761 0.0
H344 H 0.41087 0.80693 0.45098 0.0
H345 H 0.43349 0.79885 0.42607 0.0
H346 H 0.44340 0.77983 0.47829 0.0
H347 H 0.44957 0.77924 0.52682 0.0
H348 H 0.44861 0.75389 0.50477 0.0
H349 H 0.44378 0.72033 0.50143 0.0
H350 H 0.37941 0.74988 0.51852 0.0
H351 H 0.38425 0.78344 0.52186 0.0
H352 H 0.39382 0.71243 0.51002 0.0
H353 H 0.44035 0.69630 0.49822 0.0
H354 H 0.40897 0.85027 0.42448 0.0
H355 H 0.41972 0.86785 0.43981 0.0
H356 H 0.39933 0.87268 0.39079 0.0
H357 H 0.38883 0.89908 0.33924 0.0
H358 H 0.45037 0.87918 0.29761 0.0
H359 H 0.46083 0.85276 0.34905 0.0
H360 H 0.39767 0.91625 0.28308 0.0
H361 H 0.44309 0.89826 0.26136 0.0
C362 C 0.39337 0.56331 0.50618 0.0
C363 C 0.38097 0.55174 0.49498 0.0
N364 N 0.39017 0.53062 0.48616 0.0
C365 C 0.41177 0.52106 0.48855 0.0
C366 C 0.42417 0.53262 0.49975 0.0
N367 N 0.41497 0.55374 0.50857 0.0
N368 N 0.38417 0.58443 0.51500 0.0
C369 C 0.36257 0.59399 0.51261 0.0
C370 C 0.35017 0.58243 0.50140 0.0
N371 N 0.35936 0.56130 0.49259 0.0
H372 H 0.41858 0.50542 0.48202 0.0
H373 H 0.35576 0.60963 0.51914 0.0
C374 C 0.54805 0.38692 0.50255 0.0
C375 C 0.56878 0.38593 0.50264 0.0
N376 N 0.57345 0.40427 0.50245 0.0
C377 C 0.55740 0.42358 0.50217 0.0
C378 C 0.53667 0.42456 0.50209 0.0
N379 N 0.53200 0.40623 0.50227 0.0
N380 N 0.54338 0.36858 0.50274 0.0
C381 C 0.55943 0.34927 0.50301 0.0
C382 C 0.58016 0.34829 0.50310 0.0
N383 N 0.58483 0.36662 0.50291 0.0
H384 H 0.56086 0.43715 0.50203 0.0
H385 H 0.55597 0.33570 0.50315 0.0
C386 C 0.62241 0.45035 0.50202 0.0
C387 C 0.63502 0.46263 0.50201 0.0
N388 N 0.62599 0.48432 0.50187 0.0
C389 C 0.60435 0.49374 0.50174 0.0
C390 C 0.59173 0.48146 0.50174 0.0
N391 N 0.60076 0.45976 0.50189 0.0
N392 N 0.63144 0.42865 0.50216 0.0
C393 C 0.65308 0.41924 0.50229 0.0
C394 C 0.66570 0.43152 0.50228 0.0
N395 N 0.65667 0.45321 0.50214 0.0
H396 H 0.59766 0.50980 0.50163 0.0
H397 H 0.65977 0.40318 0.50240 0.0
C398 C 0.46782 0.62707 0.50001 0.0
C399 C 0.44710 0.62805 0.50000 0.0
N400 N 0.44243 0.60971 0.50025 0.0
C401 C 0.45849 0.59040 0.50051 0.0
C402 C 0.47921 0.58943 0.50052 0.0
N403 N 0.48388 0.60776 0.50027 0.0
N404 N 0.47249 0.64541 0.49976 0.0
C405 C 0.45643 0.66472 0.49950 0.0
C406 C 0.43571 0.66570 0.49949 0.0
N407 N 0.43104 0.64736 0.49974 0.0
H408 H 0.45503 0.57683 0.50069 0.0
H409 H 0.45989 0.67829 0.49932 0.0
C410 C 0.04165 0.52701 0.91021 0.0
C411 C 0.06054 0.53038 0.90611 0.0
C412 C 0.06306 0.54309 0.87575 0.0
C413 C 0.08196 0.54642 0.87163 0.0
C414 C 0.08450 0.55910 0.84122 0.0
C415 C 0.06812 0.56845 0.81494 0.0
C416 C 0.04921 0.56514 0.81911 0.0
C417 C 0.04667 0.55246 0.84951 0.0
C418 C 0.07067 0.58109 0.78450 0.0
C419 C 0.08960 0.58437 0.78031 0.0
H420 H 0.07267 0.52346 0.92556 0.0
H421 H 0.09408 0.53951 0.89109 0.0
H422 H 0.09849 0.56156 0.83816 0.0
H423 H 0.03708 0.57209 0.79968 0.0
H424 H 0.03267 0.55002 0.85259 0.0
H425 H 0.05855 0.58803 0.76506 0.0
H426 H 0.03038 0.53009 0.88839 0.0
H427 H 0.09959 0.57981 0.80423 0.0
C428 C 0.53023 0.03914 0.91871 0.0
C429 C 0.52888 0.05904 0.90620 0.0
C430 C 0.54269 0.06140 0.87806 0.0
C431 C 0.54136 0.08130 0.86562 0.0
C432 C 0.55521 0.08367 0.83755 0.0
C433 C 0.57038 0.06613 0.82192 0.0
C434 C 0.57169 0.04623 0.83431 0.0
C435 C 0.55785 0.04386 0.86239 0.0
C436 C 0.58424 0.06850 0.79390 0.0
C437 C 0.58295 0.08841 0.78155 0.0
H438 H 0.51765 0.07203 0.91777 0.0
H439 H 0.53013 0.09428 0.87719 0.0
H440 H 0.55422 0.09840 0.82835 0.0
H441 H 0.58290 0.03324 0.82270 0.0
H442 H 0.55882 0.02912 0.87157 0.0
H443 H 0.59547 0.05552 0.78230 0.0
H444 H 0.54304 0.02587 0.91424 0.0
H445 H 0.56944 0.10022 0.78947 0.0
C446 C 0.97584 0.48527 0.09197 0.0
C447 C 0.97073 0.46719 0.09246 0.0
C448 C 0.96049 0.46273 0.12484 0.0
C449 C 0.95542 0.44462 0.12535 0.0
C450 C 0.94522 0.44013 0.15776 0.0
C451 C 0.94010 0.45374 0.18966 0.0
C452 C 0.94514 0.47187 0.18913 0.0
C453 C 0.95534 0.47636 0.15672 0.0
C454 C 0.92993 0.44923 0.22210 0.0
C455 C 0.92492 0.43110 0.22265 0.0
H456 H 0.97452 0.45710 0.06885 0.0
H457 H 0.95921 0.43454 0.10173 0.0
H458 H 0.94147 0.42672 0.15813 0.0
H459 H 0.94132 0.48196 0.21273 0.0
H460 H 0.95907 0.48978 0.15633 0.0
H461 H 0.92612 0.45932 0.24571 0.0
H462 H 0.97608 0.49398 0.11668 0.0
H463 H 0.92612 0.42371 0.19581 0.0
C464 C 0.48725 0.97548 0.08897 0.0
C465 C 0.49026 0.95606 0.10608 0.0
C466 C 0.47474 0.95318 0.12943 0.0
C467 C 0.47778 0.93377 0.14659 0.0
C468 C 0.46228 0.93090 0.17002 0.0
C469 C 0.44375 0.94745 0.17628 0.0
C470 C 0.44069 0.96687 0.15907 0.0
C471 C 0.45619 0.96973 0.13565 0.0
C472 C 0.42826 0.94460 0.19976 0.0
C473 C 0.43133 0.92519 0.21701 0.0
H474 H 0.50398 0.94380 0.10145 0.0
H475 H 0.49150 0.92151 0.14194 0.0
H476 H 0.46454 0.91653 0.18273 0.0
H477 H 0.42696 0.97911 0.16367 0.0
H478 H 0.45393 0.98410 0.12291 0.0
H479 H 0.41453 0.95685 0.20437 0.0
H480 H 0.47596 0.98919 0.09773 0.0
H481 H 0.44374 0.91307 0.20598 0.0
C482 C 0.52784 0.04255 0.08922 0.0
C483 C 0.54698 0.04557 0.09184 0.0
C484 C 0.55174 0.05525 0.12485 0.0
C485 C 0.57087 0.05829 0.12742 0.0
C486 C 0.57561 0.06802 0.16039 0.0
C487 C 0.56123 0.07469 0.19080 0.0
C488 C 0.54212 0.07161 0.18827 0.0
C489 C 0.53737 0.06189 0.15529 0.0
C490 C 0.56597 0.08444 0.22374 0.0
C491 C 0.58507 0.08754 0.22625 0.0
H492 H 0.55763 0.04063 0.06933 0.0
H493 H 0.58151 0.05335 0.10492 0.0
H494 H 0.58977 0.07027 0.16229 0.0
H495 H 0.53149 0.07652 0.21080 0.0
H496 H 0.52322 0.05962 0.15341 0.0
H497 H 0.55533 0.08936 0.24627 0.0
H498 H 0.51513 0.05023 0.10646 0.0
H499 H 0.59602 0.07928 0.20604 0.0
C500 C 0.04087 0.52892 0.08367 0.0
C501 C 0.05911 0.52472 0.10593 0.0
C502 C 0.06193 0.54020 0.12962 0.0
C503 C 0.08019 0.53600 0.15181 0.0
C504 C 0.08304 0.55150 0.17544 0.0
C505 C 0.06762 0.57119 0.17689 0.0
C506 C 0.04935 0.57538 0.15475 0.0
C507 C 0.04650 0.55989 0.13111 0.0
C508 C 0.07049 0.58670 0.20046 0.0
C509 C 0.08878 0.58251 0.22256 0.0
H510 H 0.07052 0.51014 0.10487 0.0
H511 H 0.09159 0.52142 0.15075 0.0
H512 H 0.09656 0.54838 0.19186 0.0
H513 H 0.03793 0.58996 0.15586 0.0
H514 H 0.03297 0.56300 0.11472 0.0
H515 H 0.05907 0.60128 0.20156 0.0
H516 H 0.03066 0.54376 0.07753 0.0
H517 H 0.09775 0.56691 0.22493 0.0
C518 C 0.97565 0.48466 0.91854 0.0
C519 C 0.97961 0.47470 0.88212 0.0
C520 C 0.96528 0.46656 0.86576 0.0
C521 C 0.96926 0.45657 0.82937 0.0
C522 C 0.95497 0.44838 0.81305 0.0
C523 C 0.93668 0.45020 0.83311 0.0
C524 C 0.93268 0.46022 0.86947 0.0
C525 C 0.94698 0.46840 0.88580 0.0
C526 C 0.92240 0.44198 0.81681 0.0
C527 C 0.92642 0.43193 0.78047 0.0
H528 H 0.99314 0.47335 0.86726 0.0
H529 H 0.98280 0.45523 0.81452 0.0
H530 H 0.95792 0.44098 0.78611 0.0
H531 H 0.91913 0.46159 0.88429 0.0
H532 H 0.94402 0.47582 0.91272 0.0
H533 H 0.90885 0.44334 0.83164 0.0
H534 H 0.96470 0.48333 0.93819 0.0
H535 H 0.93836 0.43418 0.76476 0.0
C536 C 0.48699 0.97425 0.90966 0.0
C537 C 0.46663 0.97527 0.90147 0.0
C538 C 0.46290 0.96222 0.87306 0.0
C539 C 0.44254 0.96327 0.86483 0.0
C540 C 0.43880 0.95026 0.83636 0.0
C541 C 0.45543 0.93620 0.81614 0.0
C542 C 0.47579 0.93513 0.82442 0.0
C543 C 0.47953 0.94814 0.85288 0.0
C544 C 0.45168 0.92322 0.78762 0.0
C545 C 0.43132 0.92432 0.77931 0.0
H546 H 0.45432 0.98567 0.91643 0.0
H547 H 0.43024 0.97367 0.87981 0.0
H548 H 0.42373 0.95104 0.83026 0.0
H549 H 0.48810 0.92470 0.80948 0.0
H550 H 0.49461 0.94735 0.85900 0.0
H551 H 0.46399 0.91280 0.77267 0.0
H552 H 0.49950 0.96726 0.89151 0.0
H553 H 0.42038 0.93249 0.79961 0.0
