data_{}
_symmetry_space_group_name_H-M    P1
_symmetry_Int_Tables_number       1
_symmetry_cell_setting            triclinic
loop_
_symmetry_equiv_pos_as_xyz
'x, y, z'
_cell_length_a     76.697
_cell_length_b     80.465
_cell_length_c     35.405
_cell_angle_alpha  90.131
_cell_angle_beta   90.124
_cell_angle_gamma  92.615
loop_
_atom_site_label
_atom_site_type_symbol
_atom_site_fract_x
_atom_site_fract_y
_atom_site_fract_z
_atom_type_partial_charge
C0 C 0.99297 0.50465 0.11854 0.0
C1 C 0.00907 0.49756 0.11856 0.0
C2 C 0.01353 0.49554 0.08110 0.0
N3 N 0.00101 0.50111 0.05839 0.0
C4 C 0.98849 0.50667 0.08107 0.0
C5 C 0.02920 0.48922 0.06853 0.0
C6 C 0.03417 0.48693 0.03081 0.0
C7 C 0.05060 0.48252 0.01974 0.0
C8 C 0.05059 0.48252 0.98062 0.0
C9 C 0.03415 0.48694 0.96948 0.0
N10 N 0.02409 0.48918 0.00010 0.0
C11 C 0.02918 0.48923 0.93175 0.0
C12 C 0.01350 0.49556 0.91913 0.0
C13 C 0.00902 0.49758 0.88166 0.0
C14 C 0.99292 0.50467 0.88165 0.0
C15 C 0.98846 0.50669 0.91910 0.0
N16 N 0.00010 0.50112 0.94182 0.0
C17 C 0.97278 0.51301 0.93167 0.0
C18 C 0.96782 0.51530 0.96939 0.0
C19 C 0.95139 0.51971 0.98047 0.0
C20 C 0.95140 0.51971 0.01958 0.0
C21 C 0.96783 0.51529 0.03072 0.0
N22 N 0.97790 0.51305 0.00010 0.0
C23 C 0.97281 0.51300 0.06845 0.0
H24 H 0.98542 0.50788 0.14305 0.0
H25 H 0.01663 0.49433 0.14309 0.0
H26 H 0.99113 0.51109 0.00010 0.0
H27 H 0.06152 0.48000 0.03793 0.0
H28 H 0.06150 0.48000 0.96248 0.0
H29 H 0.01657 0.49435 0.85715 0.0
H30 H 0.98536 0.50790 0.85711 0.0
H31 H 0.94049 0.52223 0.03772 0.0
H32 H 0.01086 0.49114 0.00010 0.0
H33 H 0.94047 0.52223 0.96228 0.0
C34 C 0.49753 0.99299 0.88160 0.0
C35 C 0.50439 0.00919 0.88170 0.0
C36 C 0.50626 0.01374 0.91919 0.0
N37 N 0.50096 0.00110 0.94181 0.0
C38 C 0.49566 0.98845 0.91904 0.0
C39 C 0.51334 0.02909 0.93188 0.0
C40 C 0.51538 0.03418 0.96963 0.0
C41 C 0.52432 0.04867 0.98084 0.0
C42 C 0.52432 0.04868 0.01995 0.0
C43 C 0.51539 0.03419 0.03096 0.0
N44 N 0.50960 0.02564 0.00010 0.0
C45 C 0.51335 0.02912 0.06866 0.0
C46 C 0.50628 0.01377 0.08116 0.0
C47 C 0.50441 0.00924 0.11859 0.0
C48 C 0.49755 0.99304 0.11850 0.0
C49 C 0.49568 0.98849 0.08101 0.0
N50 N 0.50098 0.00112 0.05838 0.0
C51 C 0.48860 0.97313 0.06832 0.0
C52 C 0.48656 0.96804 0.03057 0.0
C53 C 0.47762 0.95355 0.01936 0.0
C54 C 0.47762 0.95355 0.98024 0.0
C55 C 0.48655 0.96803 0.96924 0.0
N56 N 0.49234 0.97658 0.99990 0.0
C57 C 0.48859 0.97310 0.93154 0.0
H58 H 0.49424 0.98544 0.85703 0.0
H59 H 0.50767 0.01672 0.85722 0.0
H60 H 0.50062 0.98708 0.00010 0.0
H61 H 0.53053 0.05799 0.96274 0.0
H62 H 0.53054 0.05801 0.03818 0.0
H63 H 0.50770 0.01678 0.14316 0.0
H64 H 0.49427 0.98550 0.14297 0.0
H65 H 0.47140 0.94422 0.96201 0.0
H66 H 0.50132 0.01514 0.00010 0.0
H67 H 0.47141 0.94423 0.03746 0.0
H68 H 0.47119 0.52248 0.51625 0.0
H69 H 0.46406 0.55021 0.51270 0.0
H70 H 0.51146 0.56084 0.46932 0.0
H71 H 0.51807 0.53270 0.47525 0.0
H72 H 0.53078 0.47973 0.48378 0.0
H73 H 0.53791 0.45200 0.48734 0.0
H74 H 0.49051 0.44137 0.53072 0.0
H75 H 0.48390 0.46951 0.52479 0.0
C76 C 0.47966 0.53037 0.50679 0.0
C77 C 0.47518 0.54694 0.50443 0.0
C78 C 0.48697 0.55832 0.48999 0.0
C79 C 0.50298 0.55307 0.47925 0.0
C80 C 0.50691 0.53613 0.48280 0.0
C81 C 0.46462 0.49270 0.49219 0.0
C82 C 0.52230 0.47184 0.49325 0.0
C83 C 0.52679 0.45527 0.49561 0.0
C84 C 0.51500 0.44389 0.51005 0.0
C85 C 0.49899 0.44914 0.52079 0.0
C86 C 0.49505 0.46608 0.51723 0.0
C87 C 0.53735 0.50951 0.50785 0.0
N88 N 0.49528 0.52490 0.49640 0.0
N89 N 0.50668 0.47731 0.50363 0.0
O90 O 0.47900 0.49489 0.47508 0.0
O91 O 0.46232 0.49450 0.52661 0.0
O92 O 0.52297 0.50733 0.52496 0.0
O93 O 0.53965 0.50771 0.47343 0.0
Cu94 Cu 0.50098 0.50111 0.50002 0.0
C95 C 0.11034 0.42810 0.24934 0.0
C96 C 0.11319 0.41240 0.27299 0.0
C97 C 0.12559 0.41341 0.30724 0.0
C98 C 0.12862 0.39781 0.33111 0.0
C99 C 0.14110 0.39894 0.36528 0.0
C100 C 0.15052 0.41565 0.37543 0.0
C101 C 0.14744 0.43125 0.35165 0.0
C102 C 0.13499 0.43012 0.31754 0.0
C103 C 0.16204 0.40130 0.43251 0.0
C104 C 0.17323 0.40633 0.46699 0.0
C105 C 0.19313 0.40487 0.46558 0.0
C106 C 0.20451 0.41291 0.49708 0.0
C107 C 0.19594 0.42053 0.53199 0.0
C108 C 0.17592 0.42053 0.53490 0.0
C109 C 0.16455 0.41344 0.50231 0.0
C110 C 0.14459 0.41468 0.50373 0.0
C111 C 0.20166 0.39666 0.43128 0.0
C112 C 0.20744 0.42867 0.56324 0.0
C113 C 0.22447 0.41356 0.49360 0.0
C114 C 0.24924 0.43362 0.48435 0.0
C115 C 0.26052 0.41854 0.49067 0.0
C116 C 0.28052 0.42099 0.49281 0.0
C117 C 0.28920 0.43852 0.48861 0.0
C118 C 0.27791 0.45359 0.48196 0.0
C119 C 0.25791 0.45114 0.47984 0.0
C120 C 0.30919 0.44092 0.49114 0.0
C121 C 0.32037 0.42580 0.49796 0.0
C122 C 0.16721 0.42844 0.56921 0.0
C123 C 0.15595 0.42123 0.63213 0.0
C124 C 0.15079 0.43945 0.63474 0.0
C125 C 0.13819 0.44474 0.66586 0.0
C126 C 0.13077 0.43178 0.69419 0.0
C127 C 0.13599 0.41357 0.69159 0.0
C128 C 0.14860 0.40829 0.66053 0.0
C129 C 0.11804 0.43696 0.72511 0.0
C130 C 0.11058 0.42387 0.75307 0.0
O131 O 0.16259 0.41693 0.40902 0.0
O132 O 0.16758 0.41585 0.60060 0.0
O133 O 0.22966 0.43130 0.48350 0.0
H134 H 0.11740 0.44039 0.25729 0.0
H135 H 0.10615 0.40009 0.26513 0.0
H136 H 0.12165 0.38544 0.32350 0.0
H137 H 0.14335 0.38743 0.38303 0.0
H138 H 0.15439 0.44362 0.35934 0.0
H139 H 0.13272 0.44165 0.29988 0.0
H140 H 0.16790 0.39061 0.41642 0.0
H141 H 0.14810 0.39783 0.44162 0.0
H142 H 0.14103 0.42310 0.52819 0.0
H143 H 0.13813 0.40178 0.50791 0.0
H144 H 0.13988 0.42016 0.47605 0.0
H145 H 0.19232 0.39663 0.40618 0.0
H146 H 0.20462 0.38329 0.43870 0.0
H147 H 0.21433 0.40381 0.42366 0.0
H148 H 0.19879 0.43436 0.58553 0.0
H149 H 0.21635 0.43882 0.55024 0.0
H150 H 0.21571 0.41889 0.57686 0.0
H151 H 0.23056 0.41017 0.52179 0.0
H152 H 0.22874 0.40473 0.47050 0.0
H153 H 0.25405 0.40558 0.49394 0.0
H154 H 0.28889 0.40984 0.49758 0.0
H155 H 0.28435 0.46655 0.47872 0.0
H156 H 0.24952 0.46229 0.47508 0.0
H157 H 0.31570 0.45387 0.48802 0.0
H158 H 0.31383 0.41287 0.50106 0.0
H159 H 0.17451 0.44049 0.57806 0.0
H160 H 0.15310 0.43101 0.56187 0.0
H161 H 0.15619 0.44898 0.61351 0.0
H162 H 0.13431 0.45823 0.66784 0.0
H163 H 0.13046 0.40400 0.71260 0.0
H164 H 0.15239 0.39479 0.65839 0.0
H165 H 0.11412 0.45043 0.72728 0.0
H166 H 0.11453 0.41041 0.75080 0.0
C167 C 0.57953 0.11124 0.25017 0.0
C168 C 0.59600 0.11539 0.27398 0.0
C169 C 0.59494 0.12712 0.30822 0.0
C170 C 0.61131 0.13144 0.33226 0.0
C171 C 0.61012 0.14323 0.36641 0.0
C172 C 0.59259 0.15069 0.37639 0.0
C173 C 0.57623 0.14633 0.35245 0.0
C174 C 0.57741 0.13456 0.31834 0.0
C175 C 0.60765 0.16298 0.43362 0.0
C176 C 0.60237 0.17319 0.46805 0.0
C177 C 0.60390 0.19229 0.46665 0.0
C178 C 0.59547 0.20240 0.49807 0.0
C179 C 0.58747 0.19354 0.53290 0.0
C180 C 0.58748 0.17445 0.53581 0.0
C181 C 0.59491 0.16427 0.50329 0.0
C182 C 0.59360 0.14513 0.50470 0.0
C183 C 0.61251 0.20117 0.43244 0.0
C184 C 0.57893 0.20376 0.56407 0.0
C185 C 0.59479 0.22137 0.49458 0.0
C186 C 0.57373 0.24315 0.48512 0.0
C187 C 0.58956 0.25527 0.49161 0.0
C188 C 0.58699 0.27411 0.49372 0.0
C189 C 0.56860 0.28079 0.48934 0.0
C190 C 0.55279 0.26866 0.48253 0.0
C191 C 0.55536 0.24982 0.48042 0.0
C192 C 0.56608 0.29962 0.49184 0.0
C193 C 0.58195 0.31166 0.49882 0.0
C194 C 0.57917 0.16544 0.57003 0.0
C195 C 0.58674 0.15537 0.63303 0.0
C196 C 0.56762 0.14878 0.63545 0.0
C197 C 0.56207 0.13629 0.66651 0.0
C198 C 0.57567 0.13040 0.69498 0.0
C199 C 0.59477 0.13704 0.69257 0.0
C200 C 0.60031 0.14954 0.66156 0.0
C201 C 0.57023 0.11780 0.72585 0.0
C202 C 0.58397 0.11189 0.75394 0.0
O203 O 0.59125 0.16208 0.40997 0.0
O204 O 0.59238 0.16694 0.60156 0.0
O205 O 0.57618 0.22469 0.48430 0.0
H206 H 0.56664 0.11685 0.25799 0.0
H207 H 0.60892 0.10981 0.26626 0.0
H208 H 0.62428 0.12592 0.32478 0.0
H209 H 0.62220 0.14643 0.38429 0.0
H210 H 0.56325 0.15182 0.36000 0.0
H211 H 0.56532 0.13135 0.30056 0.0
H212 H 0.61886 0.16953 0.41765 0.0
H213 H 0.61128 0.15001 0.44277 0.0
H214 H 0.58477 0.14096 0.52907 0.0
H215 H 0.60714 0.14015 0.50901 0.0
H216 H 0.58786 0.14014 0.47696 0.0
H217 H 0.61255 0.19227 0.40734 0.0
H218 H 0.62654 0.20521 0.44001 0.0
H219 H 0.60502 0.21260 0.42475 0.0
H220 H 0.57296 0.19500 0.58630 0.0
H221 H 0.56828 0.21133 0.55095 0.0
H222 H 0.58919 0.21254 0.57779 0.0
H223 H 0.59834 0.22749 0.52281 0.0
H224 H 0.60405 0.22624 0.47158 0.0
H225 H 0.60316 0.25030 0.49501 0.0
H226 H 0.59869 0.28311 0.49861 0.0
H227 H 0.53919 0.27361 0.47914 0.0
H228 H 0.54366 0.24080 0.47555 0.0
H229 H 0.55249 0.30464 0.48858 0.0
H230 H 0.59551 0.30660 0.50205 0.0
H231 H 0.56653 0.17129 0.57876 0.0
H232 H 0.57648 0.15175 0.56266 0.0
H233 H 0.55763 0.15306 0.61412 0.0
H234 H 0.54792 0.13136 0.66835 0.0
H235 H 0.60481 0.13265 0.71368 0.0
H236 H 0.61447 0.15439 0.65957 0.0
H237 H 0.55610 0.11284 0.72787 0.0
H238 H 0.59809 0.11687 0.75181 0.0
C239 C 0.89170 0.57538 0.75070 0.0
C240 C 0.88734 0.55969 0.72688 0.0
C241 C 0.87504 0.56070 0.69264 0.0
C242 C 0.87051 0.54510 0.66860 0.0
C243 C 0.85814 0.54623 0.63445 0.0
C244 C 0.85032 0.56294 0.62448 0.0
C245 C 0.85489 0.57853 0.64842 0.0
C246 C 0.86724 0.57740 0.68253 0.0
C247 C 0.83743 0.54858 0.56724 0.0
C248 C 0.82672 0.55362 0.53282 0.0
C249 C 0.80668 0.55216 0.53421 0.0
C250 C 0.79607 0.56019 0.50280 0.0
C251 C 0.80537 0.56782 0.46797 0.0
C252 C 0.82539 0.56781 0.46506 0.0
C253 C 0.83608 0.56073 0.49757 0.0
C254 C 0.85616 0.56197 0.49617 0.0
C255 C 0.79736 0.54395 0.56842 0.0
C256 C 0.79465 0.57595 0.43680 0.0
C257 C 0.77617 0.56084 0.50629 0.0
C258 C 0.75332 0.58091 0.51576 0.0
C259 C 0.74060 0.56582 0.50926 0.0
C260 C 0.72084 0.56827 0.50715 0.0
C261 C 0.71383 0.58580 0.51154 0.0
C262 C 0.72656 0.60087 0.51836 0.0
C263 C 0.74632 0.59842 0.52046 0.0
C264 C 0.69407 0.58821 0.50904 0.0
C265 C 0.68144 0.57308 0.50206 0.0
C266 C 0.83485 0.57573 0.43084 0.0
C267 C 0.84542 0.56851 0.36784 0.0
C268 C 0.85233 0.58674 0.36543 0.0
C269 C 0.86544 0.59203 0.33437 0.0
C270 C 0.87162 0.57907 0.30589 0.0
C271 C 0.86466 0.56086 0.30830 0.0
C272 C 0.85154 0.55557 0.33930 0.0
C273 C 0.88484 0.58425 0.27502 0.0
C274 C 0.89105 0.57115 0.24692 0.0
O275 O 0.83837 0.56421 0.59090 0.0
O276 O 0.83328 0.56314 0.39931 0.0
O277 O 0.77268 0.57858 0.51657 0.0
H278 H 0.88581 0.58767 0.74289 0.0
H279 H 0.89320 0.54737 0.73460 0.0
H280 H 0.87630 0.53273 0.67608 0.0
H281 H 0.85479 0.53471 0.61657 0.0
H282 H 0.84913 0.59091 0.64087 0.0
H283 H 0.87061 0.58893 0.70031 0.0
H284 H 0.83055 0.53789 0.58321 0.0
H285 H 0.85104 0.54512 0.55809 0.0
H286 H 0.86053 0.57039 0.47179 0.0
H287 H 0.86139 0.54906 0.49185 0.0
H288 H 0.86139 0.56744 0.52391 0.0
H289 H 0.80670 0.54391 0.59352 0.0
H290 H 0.79312 0.53058 0.56085 0.0
H291 H 0.78537 0.55109 0.57611 0.0
H292 H 0.80384 0.58164 0.41458 0.0
H293 H 0.78670 0.58611 0.44992 0.0
H294 H 0.78544 0.56618 0.42308 0.0
H295 H 0.76975 0.55745 0.47806 0.0
H296 H 0.77106 0.55201 0.52929 0.0
H297 H 0.74582 0.55286 0.50586 0.0
H298 H 0.71139 0.55712 0.50226 0.0
H299 H 0.72136 0.61384 0.52174 0.0
H300 H 0.75579 0.60957 0.52534 0.0
H301 H 0.68880 0.60115 0.51230 0.0
H302 H 0.68675 0.56015 0.49882 0.0
H303 H 0.82871 0.58777 0.42212 0.0
H304 H 0.84921 0.57830 0.43821 0.0
H305 H 0.84784 0.59626 0.38675 0.0
H306 H 0.87061 0.60551 0.33253 0.0
H307 H 0.86926 0.55129 0.28718 0.0
H308 H 0.84646 0.54208 0.34129 0.0
H309 H 0.89005 0.59771 0.27301 0.0
H310 H 0.88581 0.55770 0.24905 0.0
C311 C 0.42109 0.89092 0.74988 0.0
C312 C 0.43755 0.88820 0.72623 0.0
C313 C 0.43650 0.87638 0.69197 0.0
C314 C 0.45286 0.87348 0.66810 0.0
C315 C 0.45168 0.86159 0.63393 0.0
C316 C 0.43414 0.85261 0.62379 0.0
C317 C 0.41778 0.85554 0.64757 0.0
C318 C 0.41897 0.86742 0.68168 0.0
C319 C 0.44920 0.84163 0.56670 0.0
C320 C 0.44392 0.83096 0.53222 0.0
C321 C 0.44545 0.81199 0.53363 0.0
C322 C 0.43703 0.80114 0.50213 0.0
C323 C 0.42903 0.80931 0.46722 0.0
C324 C 0.42903 0.82840 0.46431 0.0
C325 C 0.43646 0.83923 0.49690 0.0
C326 C 0.43516 0.85826 0.49549 0.0
C327 C 0.45407 0.80386 0.56792 0.0
C328 C 0.42049 0.79835 0.43597 0.0
C329 C 0.43634 0.78211 0.50561 0.0
C330 C 0.41529 0.75850 0.51487 0.0
C331 C 0.43112 0.74776 0.50853 0.0
C332 C 0.42855 0.72870 0.50640 0.0
C333 C 0.41016 0.72042 0.51060 0.0
C334 C 0.39435 0.73118 0.51725 0.0
C335 C 0.39692 0.75024 0.51938 0.0
C336 C 0.40763 0.70137 0.50807 0.0
C337 C 0.42350 0.69071 0.50125 0.0
C338 C 0.42073 0.83669 0.43001 0.0
C339 C 0.42829 0.84742 0.36709 0.0
C340 C 0.40918 0.85234 0.36448 0.0
C341 C 0.40362 0.86435 0.33337 0.0
C342 C 0.41722 0.87142 0.30503 0.0
C343 C 0.43633 0.86645 0.30763 0.0
C344 C 0.44187 0.85443 0.33868 0.0
C345 C 0.41179 0.88355 0.27411 0.0
C346 C 0.42553 0.89066 0.24615 0.0
O347 O 0.43281 0.84110 0.59019 0.0
O348 O 0.43393 0.83633 0.39861 0.0
O349 O 0.41773 0.77717 0.51571 0.0
H350 H 0.40819 0.88418 0.74193 0.0
H351 H 0.45048 0.89490 0.73408 0.0
H352 H 0.46584 0.88013 0.67571 0.0
H353 H 0.46376 0.85944 0.61618 0.0
H354 H 0.40480 0.84892 0.63988 0.0
H355 H 0.40687 0.86957 0.69935 0.0
H356 H 0.46042 0.83605 0.58278 0.0
H357 H 0.45284 0.85491 0.55759 0.0
H358 H 0.42633 0.86165 0.47102 0.0
H359 H 0.44870 0.86441 0.49130 0.0
H360 H 0.42942 0.86274 0.52317 0.0
H361 H 0.45410 0.81277 0.59302 0.0
H362 H 0.46809 0.80104 0.56050 0.0
H363 H 0.44657 0.79178 0.57554 0.0
H364 H 0.41452 0.80659 0.41368 0.0
H365 H 0.40984 0.78985 0.44898 0.0
H366 H 0.43074 0.79046 0.42235 0.0
H367 H 0.43990 0.77631 0.47742 0.0
H368 H 0.44560 0.77805 0.52871 0.0
H369 H 0.44471 0.75392 0.50526 0.0
H370 H 0.44024 0.72071 0.50162 0.0
H371 H 0.38074 0.72504 0.52050 0.0
H372 H 0.38522 0.75824 0.52414 0.0
H373 H 0.39405 0.69516 0.51119 0.0
H374 H 0.43707 0.69695 0.49815 0.0
H375 H 0.40809 0.82974 0.42116 0.0
H376 H 0.41803 0.85014 0.43735 0.0
H377 H 0.39918 0.84719 0.38571 0.0
H378 H 0.38948 0.86805 0.33139 0.0
H379 H 0.44637 0.87171 0.28661 0.0
H380 H 0.45603 0.85081 0.34082 0.0
H381 H 0.39766 0.88728 0.27195 0.0
H382 H 0.43964 0.88690 0.24842 0.0
C383 C 0.44162 0.48519 0.49793 0.0
C384 C 0.42719 0.48001 0.52628 0.0
C385 C 0.41102 0.46954 0.51293 0.0
C386 C 0.39658 0.46439 0.54129 0.0
C387 C 0.38038 0.45396 0.52793 0.0
C388 C 0.37864 0.44867 0.48621 0.0
C389 C 0.39310 0.45379 0.45787 0.0
C390 C 0.40929 0.46423 0.47122 0.0
C391 C 0.36243 0.43826 0.47284 0.0
C392 C 0.34796 0.43316 0.50117 0.0
H393 H 0.42848 0.48392 0.55717 0.0
H394 H 0.39787 0.46830 0.57217 0.0
H395 H 0.36969 0.45015 0.54892 0.0
H396 H 0.39181 0.44986 0.42700 0.0
H397 H 0.41999 0.46802 0.45024 0.0
H398 H 0.36114 0.43434 0.44196 0.0
H399 H 0.43987 0.48478 0.46595 0.0
H400 H 0.35169 0.43498 0.53215 0.0
C401 C 0.52323 0.42340 0.50402 0.0
C402 C 0.54198 0.41746 0.50093 0.0
C403 C 0.54525 0.39872 0.50075 0.0
C404 C 0.56401 0.39279 0.49773 0.0
C405 C 0.56729 0.37405 0.49766 0.0
C406 C 0.55181 0.36124 0.50059 0.0
C407 C 0.53305 0.36717 0.50354 0.0
C408 C 0.52977 0.38591 0.50363 0.0
C409 C 0.55509 0.34251 0.50058 0.0
C410 C 0.57386 0.33658 0.49768 0.0
H411 H 0.55344 0.42694 0.49876 0.0
H412 H 0.57546 0.40227 0.49555 0.0
H413 H 0.58117 0.36966 0.49543 0.0
H414 H 0.52159 0.35769 0.50565 0.0
H415 H 0.51588 0.39030 0.50581 0.0
H416 H 0.54364 0.33302 0.50271 0.0
H417 H 0.51160 0.41519 0.51379 0.0
H418 H 0.58405 0.34658 0.48890 0.0
C419 C 0.55975 0.51812 0.50396 0.0
C420 C 0.56741 0.53584 0.49663 0.0
C421 C 0.58729 0.53944 0.49847 0.0
C422 C 0.59494 0.55717 0.49121 0.0
C423 C 0.61482 0.56078 0.49315 0.0
C424 C 0.62704 0.54667 0.50233 0.0
C425 C 0.61938 0.52893 0.50951 0.0
C426 C 0.59951 0.52532 0.50759 0.0
C427 C 0.64691 0.55029 0.50433 0.0
C428 C 0.65455 0.56803 0.49719 0.0
H429 H 0.55837 0.54629 0.48984 0.0
H430 H 0.58590 0.56762 0.48441 0.0
H431 H 0.62048 0.57391 0.48779 0.0
H432 H 0.62843 0.51848 0.51625 0.0
H433 H 0.59385 0.51219 0.51292 0.0
H434 H 0.65595 0.53984 0.51108 0.0
H435 H 0.56723 0.50791 0.51812 0.0
H436 H 0.64506 0.57689 0.48412 0.0
C437 C 0.47754 0.57816 0.49633 0.0
C438 C 0.48213 0.59694 0.49319 0.0
C439 C 0.46766 0.60951 0.49636 0.0
C440 C 0.47224 0.62829 0.49314 0.0
C441 C 0.45777 0.64087 0.49621 0.0
C442 C 0.43871 0.63467 0.50252 0.0
C443 C 0.43412 0.61589 0.50582 0.0
C444 C 0.44860 0.60331 0.50273 0.0
C445 C 0.42423 0.64725 0.50553 0.0
C446 C 0.42881 0.66602 0.50218 0.0
H447 H 0.49624 0.60153 0.48851 0.0
H448 H 0.48635 0.63287 0.48848 0.0
H449 H 0.46117 0.65476 0.49382 0.0
H450 H 0.42001 0.61131 0.51054 0.0
H451 H 0.44520 0.58942 0.50517 0.0
H452 H 0.41012 0.64266 0.51024 0.0
H453 H 0.46376 0.57238 0.49336 0.0
H454 H 0.44333 0.66962 0.50435 0.0
H455 H 0.04186 0.47182 0.92594 0.0
H456 H 0.04097 0.46625 0.85064 0.0
H457 H 0.07853 0.46789 0.87744 0.0
H458 H 0.05968 0.45266 0.89009 0.0
H459 H 0.09521 0.44248 0.76583 0.0
H460 H 0.09610 0.44805 0.84113 0.0
H461 H 0.05854 0.44641 0.81433 0.0
H462 H 0.07739 0.46164 0.80168 0.0
C463 C 0.04577 0.47689 0.90440 0.0
C464 C 0.05064 0.47167 0.86467 0.0
C465 C 0.06586 0.45961 0.86610 0.0
C466 C 0.09130 0.43741 0.78737 0.0
C467 C 0.08643 0.44264 0.82710 0.0
C468 C 0.07121 0.45469 0.82566 0.0
H469 H 0.51060 0.04463 0.88757 0.0
H470 H 0.53764 0.06583 0.90606 0.0
H471 H 0.54384 0.05129 0.82854 0.0
H472 H 0.52581 0.06493 0.84592 0.0
H473 H 0.58592 0.09350 0.80534 0.0
H474 H 0.55889 0.07231 0.78685 0.0
H475 H 0.55268 0.08684 0.86438 0.0
H476 H 0.57072 0.07320 0.84699 0.0
C477 C 0.52233 0.04432 0.89137 0.0
C478 C 0.53812 0.05637 0.88880 0.0
C479 C 0.54008 0.06314 0.84794 0.0
C480 C 0.57420 0.09381 0.80154 0.0
C481 C 0.55840 0.08177 0.80411 0.0
C482 C 0.55645 0.07499 0.84498 0.0
H483 H 0.96546 0.53224 0.08220 0.0
H484 H 0.93239 0.52611 0.10640 0.0
H485 H 0.95318 0.54457 0.16743 0.0
H486 H 0.94730 0.55128 0.11757 0.0
H487 H 0.90144 0.55788 0.22627 0.0
H488 H 0.93450 0.56401 0.20207 0.0
H489 H 0.91371 0.54556 0.14104 0.0
H490 H 0.91959 0.53885 0.19090 0.0
C491 C 0.95981 0.52657 0.10113 0.0
C492 C 0.94273 0.52759 0.12247 0.0
C493 C 0.94201 0.54464 0.14288 0.0
C494 C 0.90708 0.56355 0.20735 0.0
C495 C 0.92417 0.56254 0.18600 0.0
C496 C 0.92488 0.54549 0.16559 0.0
H497 H 0.48906 0.96255 0.11970 0.0
H498 H 0.45401 0.95873 0.12634 0.0
H499 H 0.46998 0.92519 0.13438 0.0
H500 H 0.47274 0.94469 0.16488 0.0
H501 H 0.41832 0.90376 0.18764 0.0
H502 H 0.45337 0.90758 0.18100 0.0
H503 H 0.43740 0.94112 0.17296 0.0
H504 H 0.43464 0.92162 0.14245 0.0
C505 C 0.47998 0.95712 0.10761 0.0
C506 C 0.46180 0.95024 0.11766 0.0
C507 C 0.46291 0.93685 0.14896 0.0
C508 C 0.42740 0.90919 0.19972 0.0
C509 C 0.44558 0.91607 0.18967 0.0
C510 C 0.44447 0.92946 0.15838 0.0
H511 H 0.51316 0.03933 0.12054 0.0
H512 H 0.54821 0.04377 0.12606 0.0
H513 H 0.53161 0.07689 0.13656 0.0
H514 H 0.52956 0.05711 0.16607 0.0
H515 H 0.58339 0.09885 0.18902 0.0
H516 H 0.54833 0.09442 0.18350 0.0
H517 H 0.56493 0.06129 0.17300 0.0
H518 H 0.56698 0.08107 0.14348 0.0
C519 C 0.52201 0.04503 0.10841 0.0
C520 C 0.54015 0.05216 0.11815 0.0
C521 C 0.53908 0.06526 0.15022 0.0
C522 C 0.57453 0.09316 0.20114 0.0
C523 C 0.55639 0.08602 0.19141 0.0
C524 C 0.55746 0.07292 0.15934 0.0
H525 H 0.05196 0.49136 0.09562 0.0
H526 H 0.04377 0.47160 0.15522 0.0
H527 H 0.07274 0.45658 0.11039 0.0
H528 H 0.07236 0.47720 0.13693 0.0
H529 H 0.08519 0.42293 0.21279 0.0
H530 H 0.09338 0.44269 0.15320 0.0
H531 H 0.06441 0.45771 0.19802 0.0
H532 H 0.06479 0.43709 0.17147 0.0
C533 C 0.04780 0.48076 0.09998 0.0
C534 C 0.04880 0.46800 0.13138 0.0
C535 C 0.06808 0.46383 0.13864 0.0
C536 C 0.08935 0.43353 0.20843 0.0
C537 C 0.08836 0.44629 0.17703 0.0
C538 C 0.06907 0.45046 0.16977 0.0
H539 H 0.96682 0.51616 0.87824 0.0
H540 H 0.93267 0.52257 0.88467 0.0
H541 H 0.95241 0.55295 0.85349 0.0
H542 H 0.94902 0.53113 0.83286 0.0
H543 H 0.89999 0.57398 0.81343 0.0
H544 H 0.93414 0.56758 0.80699 0.0
H545 H 0.91440 0.53719 0.83817 0.0
H546 H 0.91779 0.55901 0.85880 0.0
C547 C 0.96006 0.52332 0.89091 0.0
C548 C 0.94241 0.53082 0.88547 0.0
C549 C 0.94228 0.54103 0.84833 0.0
C550 C 0.90675 0.56683 0.80075 0.0
C551 C 0.92440 0.55932 0.80619 0.0
C552 C 0.92452 0.54911 0.84334 0.0
H553 H 0.48775 0.95030 0.91143 0.0
H554 H 0.45291 0.94845 0.89935 0.0
H555 H 0.47153 0.93976 0.82710 0.0
H556 H 0.47106 0.92893 0.87495 0.0
H557 H 0.41961 0.91595 0.77926 0.0
H558 H 0.45445 0.91781 0.79134 0.0
H559 H 0.43584 0.92650 0.86359 0.0
H560 H 0.43631 0.93732 0.81574 0.0
C561 C 0.47977 0.95525 0.89663 0.0
C562 C 0.46185 0.95075 0.88021 0.0
C563 C 0.46273 0.93527 0.85418 0.0
C564 C 0.42759 0.91100 0.79406 0.0
C565 C 0.44551 0.91550 0.81048 0.0
C566 C 0.44463 0.93099 0.83651 0.0
