data_{}
_symmetry_space_group_name_H-M    P1
_symmetry_Int_Tables_number       1
_symmetry_cell_setting            triclinic
loop_
_symmetry_equiv_pos_as_xyz
'x, y, z'
_cell_length_a     64.459
_cell_length_b     71.558
_cell_length_c     40.263
_cell_angle_alpha  90.000
_cell_angle_beta   90.136
_cell_angle_gamma  122.777
loop_
_atom_site_label
_atom_site_type_symbol
_atom_site_fract_x
_atom_site_fract_y
_atom_site_fract_z
_atom_type_partial_charge
C0 C 0.06766 0.03394 0.00349 0.0
Ag1 Ag 0.00451 0.01180 0.98954 0.0
C2 C 0.96800 0.95689 0.00010 0.0
C3 C 0.99990 0.05525 0.00527 0.0
N4 N 0.04671 0.02511 0.00524 0.0
N5 N 0.98083 0.97530 0.99382 0.0
N6 N 0.00010 0.03987 0.00533 0.0
C7 C 0.89202 0.34815 0.78564 0.0
C8 C 0.87288 0.32806 0.80642 0.0
C9 C 0.88142 0.32062 0.83652 0.0
C10 C 0.86251 0.30051 0.85750 0.0
C11 C 0.87125 0.29316 0.88753 0.0
C12 C 0.89886 0.30590 0.89644 0.0
C13 C 0.91773 0.32602 0.87555 0.0
C14 C 0.90901 0.33336 0.84557 0.0
C15 C 0.88653 0.28134 0.94661 0.0
C16 C 0.89969 0.27938 0.97692 0.0
C17 C 0.90931 0.26388 0.97564 0.0
C18 C 0.92656 0.26524 0.00333 0.0
C19 C 0.93168 0.27999 0.03404 0.0
C20 C 0.92005 0.29389 0.03664 0.0
C21 C 0.90407 0.29360 0.00799 0.0
C22 C 0.89413 0.30890 0.00927 0.0
C23 C 0.90339 0.24848 0.94547 0.0
C24 C 0.94914 0.28140 0.06151 0.0
C25 C 0.93901 0.25213 0.00010 0.0
C26 C 0.97998 0.25808 0.99207 0.0
C27 C 0.96653 0.23285 0.99761 0.0
C28 C 0.98139 0.22179 0.99990 0.0
C29 C 0.00965 0.23598 0.99576 0.0
C30 C 0.02307 0.26120 0.98993 0.0
C31 C 0.00821 0.27226 0.98809 0.0
C32 C 0.02444 0.22487 0.99795 0.0
C33 C 0.01090 0.19966 0.00392 0.0
C34 C 0.92549 0.30907 0.06682 0.0
C35 C 0.90939 0.30857 0.12217 0.0
C36 C 0.93053 0.33318 0.12448 0.0
C37 C 0.93023 0.34803 0.15186 0.0
C38 C 0.90875 0.33823 0.17678 0.0
C39 C 0.88765 0.31360 0.17448 0.0
C40 C 0.88797 0.29875 0.14715 0.0
C41 C 0.90822 0.35305 0.20400 0.0
C42 C 0.88654 0.34312 0.22859 0.0
O43 O 0.90755 0.29899 0.92597 0.0
O44 O 0.90902 0.29429 0.09442 0.0
O45 O 0.96552 0.26899 0.99136 0.0
H46 H 0.91241 0.35742 0.79262 0.0
H47 H 0.85248 0.31874 0.79952 0.0
H48 H 0.84208 0.29108 0.85081 0.0
H49 H 0.85730 0.27831 0.90313 0.0
H50 H 0.93816 0.33547 0.88230 0.0
H51 H 0.92297 0.34824 0.83005 0.0
H52 H 0.87577 0.26494 0.93245 0.0
H53 H 0.87384 0.28702 0.95465 0.0
H54 H 0.90321 0.32109 0.03080 0.0
H55 H 0.87328 0.29850 0.01295 0.0
H56 H 0.89865 0.31848 0.98494 0.0
H57 H 0.89792 0.25492 0.92341 0.0
H58 H 0.88739 0.23100 0.95198 0.0
H59 H 0.92021 0.24792 0.93875 0.0
H60 H 0.95166 0.29396 0.08113 0.0
H61 H 0.96777 0.28692 0.05006 0.0
H62 H 0.94099 0.26437 0.07347 0.0
H63 H 0.93805 0.24399 0.02501 0.0
H64 H 0.92979 0.23898 0.97991 0.0
H65 H 0.94561 0.22239 0.00010 0.0
H66 H 0.97148 0.20311 0.00363 0.0
H67 H 0.04399 0.27169 0.98707 0.0
H68 H 0.01811 0.29095 0.98393 0.0
H69 H 0.04537 0.23529 0.99520 0.0
H70 H 0.98997 0.18929 0.00665 0.0
H71 H 0.94568 0.31790 0.07460 0.0
H72 H 0.92070 0.32183 0.06039 0.0
H73 H 0.94629 0.34041 0.10581 0.0
H74 H 0.94584 0.36628 0.15362 0.0
H75 H 0.87177 0.30640 0.19296 0.0
H76 H 0.87230 0.28055 0.14525 0.0
H77 H 0.92379 0.37130 0.20592 0.0
H78 H 0.87101 0.32486 0.22658 0.0
C79 C 0.53040 0.20416 0.22527 0.0
C80 C 0.52593 0.18425 0.20440 0.0
C81 C 0.50842 0.17649 0.17426 0.0
C82 C 0.50370 0.15656 0.15319 0.0
C83 C 0.48608 0.14889 0.12313 0.0
C84 C 0.47322 0.16113 0.11427 0.0
C85 C 0.47801 0.18109 0.13526 0.0
C86 C 0.49559 0.18875 0.16527 0.0
C87 C 0.45653 0.13652 0.06399 0.0
C88 C 0.44085 0.13421 0.03368 0.0
C89 C 0.41266 0.11826 0.03488 0.0
C90 C 0.39679 0.11922 0.00720 0.0
C91 C 0.40913 0.13406 0.97655 0.0
C92 C 0.43746 0.14844 0.97402 0.0
C93 C 0.45333 0.14854 0.00267 0.0
C94 C 0.48160 0.16430 0.00146 0.0
C95 C 0.40035 0.10278 0.06498 0.0
C96 C 0.39310 0.13506 0.94908 0.0
C97 C 0.36856 0.10562 0.01023 0.0
C98 C 0.33408 0.11065 0.01842 0.0
C99 C 0.31771 0.08539 0.01276 0.0
C100 C 0.28949 0.07380 0.01086 0.0
C101 C 0.27770 0.08751 0.01462 0.0
C102 C 0.29408 0.11277 0.02056 0.0
C103 C 0.32231 0.12435 0.02245 0.0
C104 C 0.24949 0.07588 0.01238 0.0
C105 C 0.23324 0.05064 0.00629 0.0
C106 C 0.45000 0.16371 0.94390 0.0
C107 C 0.46573 0.16359 0.88856 0.0
C108 C 0.47355 0.18804 0.88636 0.0
C109 C 0.49152 0.20312 0.85904 0.0
C110 C 0.50166 0.19370 0.83408 0.0
C111 C 0.49377 0.16923 0.83627 0.0
C112 C 0.47578 0.15416 0.86354 0.0
C113 C 0.51982 0.20874 0.80693 0.0
C114 C 0.53000 0.19920 0.78230 0.0
O115 O 0.45619 0.15391 0.08472 0.0
O116 O 0.44912 0.14912 0.91624 0.0
O117 O 0.36173 0.12208 0.01918 0.0
H118 H 0.52076 0.21307 0.21833 0.0
H119 H 0.53554 0.17529 0.21126 0.0
H120 H 0.51321 0.14749 0.15984 0.0
H121 H 0.48258 0.13416 0.10747 0.0
H122 H 0.46854 0.19018 0.12854 0.0
H123 H 0.49912 0.20349 0.18086 0.0
H124 H 0.44795 0.12015 0.07808 0.0
H125 H 0.47616 0.14260 0.05599 0.0
H126 H 0.48688 0.17644 0.97999 0.0
H127 H 0.49038 0.15426 0.99773 0.0
H128 H 0.48841 0.17391 0.02583 0.0
H129 H 0.41356 0.10945 0.08707 0.0
H130 H 0.39579 0.08544 0.05839 0.0
H131 H 0.38262 0.10180 0.07170 0.0
H132 H 0.40549 0.14775 0.92953 0.0
H133 H 0.38076 0.14020 0.96055 0.0
H134 H 0.38112 0.11799 0.93705 0.0
H135 H 0.35985 0.09738 0.98541 0.0
H136 H 0.36228 0.09251 0.03049 0.0
H137 H 0.32649 0.07528 0.00984 0.0
H138 H 0.27733 0.05510 0.00660 0.0
H139 H 0.28533 0.12290 0.02346 0.0
H140 H 0.33450 0.14307 0.02670 0.0
H141 H 0.24064 0.08594 0.01517 0.0
H142 H 0.24214 0.04063 0.00352 0.0
H143 H 0.44001 0.17217 0.93617 0.0
H144 H 0.47003 0.17677 0.95040 0.0
H145 H 0.46617 0.19499 0.90506 0.0
H146 H 0.49739 0.22125 0.85737 0.0
H147 H 0.50132 0.16231 0.81776 0.0
H148 H 0.47003 0.13607 0.86535 0.0
H149 H 0.52573 0.22688 0.80510 0.0
H150 H 0.52405 0.18106 0.78423 0.0
C151 C 0.68268 0.53442 0.78484 0.0
C152 C 0.70598 0.54202 0.80578 0.0
C153 C 0.71183 0.55740 0.83587 0.0
C154 C 0.73511 0.56521 0.85701 0.0
C155 C 0.74084 0.58065 0.88702 0.0
C156 C 0.72330 0.58826 0.89577 0.0
C157 C 0.70000 0.58040 0.87471 0.0
C158 C 0.69429 0.56498 0.84475 0.0
C159 C 0.74982 0.60645 0.94609 0.0
C160 C 0.74942 0.61928 0.97634 0.0
C161 C 0.76305 0.64474 0.97508 0.0
C162 C 0.75862 0.65704 0.00268 0.0
C163 C 0.74310 0.64428 0.03332 0.0
C164 C 0.73141 0.61903 0.03591 0.0
C165 C 0.73454 0.60651 0.00734 0.0
C166 C 0.72117 0.58102 0.00861 0.0
C167 C 0.77936 0.65761 0.94499 0.0
C168 C 0.73859 0.65670 0.06070 0.0
C169 C 0.76939 0.68205 0.99990 0.0
C170 C 0.75619 0.70817 0.99121 0.0
C171 C 0.78357 0.72623 0.99690 0.0
C172 C 0.79188 0.75083 0.99872 0.0
C173 C 0.77278 0.75730 0.99485 0.0
C174 C 0.74541 0.73922 0.98887 0.0
C175 C 0.73710 0.71463 0.98706 0.0
C176 C 0.78114 0.78190 0.99701 0.0
C177 C 0.80853 0.79986 0.00314 0.0
C178 C 0.71541 0.60603 0.06602 0.0
C179 C 0.71878 0.59367 0.12144 0.0
C180 C 0.69063 0.58250 0.12356 0.0
C181 C 0.67597 0.56526 0.15089 0.0
C182 C 0.68951 0.55920 0.17594 0.0
C183 C 0.71767 0.57044 0.17383 0.0
C184 C 0.73232 0.58769 0.14655 0.0
C185 C 0.67493 0.54183 0.20311 0.0
C186 C 0.68863 0.53577 0.22784 0.0
O187 O 0.72859 0.60315 0.92528 0.0
O188 O 0.73298 0.60971 0.09375 0.0
O189 O 0.74796 0.68406 0.99052 0.0
H190 H 0.66985 0.54018 0.79170 0.0
H191 H 0.71885 0.53629 0.79901 0.0
H192 H 0.74810 0.55958 0.85045 0.0
H193 H 0.75803 0.58643 0.90274 0.0
H194 H 0.68700 0.58599 0.88134 0.0
H195 H 0.67707 0.55918 0.82911 0.0
H196 H 0.76798 0.61657 0.93204 0.0
H197 H 0.74646 0.58976 0.95415 0.0
H198 H 0.70748 0.57437 0.03005 0.0
H199 H 0.73519 0.57617 0.01242 0.0
H200 H 0.71087 0.57369 0.98422 0.0
H201 H 0.77395 0.64583 0.92293 0.0
H202 H 0.79952 0.66475 0.95164 0.0
H203 H 0.77691 0.67176 0.93820 0.0
H204 H 0.72570 0.64434 0.08026 0.0
H205 H 0.72981 0.66535 0.04915 0.0
H206 H 0.75691 0.66963 0.07276 0.0
H207 H 0.77762 0.69060 0.02440 0.0
H208 H 0.78405 0.68969 0.97935 0.0
H209 H 0.79767 0.72139 0.99990 0.0
H210 H 0.81214 0.76424 0.00302 0.0
H211 H 0.73129 0.74403 0.98588 0.0
H212 H 0.71683 0.70119 0.98278 0.0
H213 H 0.76709 0.78679 0.99413 0.0
H214 H 0.82253 0.79491 0.00600 0.0
H215 H 0.70306 0.61215 0.07367 0.0
H216 H 0.70363 0.58758 0.05956 0.0
H217 H 0.68066 0.58688 0.10479 0.0
H218 H 0.65512 0.55691 0.15251 0.0
H219 H 0.72764 0.56592 0.19241 0.0
H220 H 0.75314 0.59593 0.14479 0.0
H221 H 0.65408 0.53345 0.20489 0.0
H222 H 0.70949 0.54418 0.22596 0.0
O223 O 0.68849 0.36937 0.54604 0.0
Be224 Be 0.73241 0.36641 0.54267 0.0
Be225 Be 0.71491 0.39307 0.46831 0.0
O226 O 0.74780 0.35885 0.56445 0.0
Be227 Be 0.71492 0.39308 0.54260 0.0
O228 O 0.74518 0.37264 0.61176 0.0
O229 O 0.71336 0.41132 0.44658 0.0
Be230 Be 0.73240 0.36639 0.46838 0.0
O231 O 0.72449 0.40410 0.39930 0.0
O232 O 0.70310 0.34704 0.46475 0.0
O233 O 0.70312 0.34705 0.54610 0.0
O234 O 0.71339 0.41134 0.56432 0.0
O235 O 0.72453 0.40413 0.61168 0.0
H236 H 0.75082 0.40072 0.56211 0.0
H237 H 0.75079 0.40070 0.44905 0.0
O238 O 0.74778 0.35883 0.44671 0.0
O239 O 0.74513 0.37260 0.39938 0.0
H240 H 0.75326 0.36435 0.50560 0.0
H241 H 0.71996 0.41513 0.50547 0.0
O242 O 0.68847 0.36936 0.46470 0.0
O243 O 0.73642 0.38960 0.55179 0.0
O244 O 0.73640 0.38958 0.45928 0.0
O245 O 0.73969 0.36569 0.50555 0.0
O246 O 0.71668 0.40078 0.50546 0.0
C247 C 0.75100 0.36178 0.59594 0.0
C248 C 0.71695 0.41364 0.41510 0.0
C249 C 0.71699 0.41366 0.59582 0.0
C250 C 0.75097 0.36175 0.41523 0.0
C251 C 0.68549 0.35025 0.54948 0.0
C252 C 0.68548 0.35023 0.46125 0.0
C253 C 0.84033 0.35467 0.70762 0.0
N254 N 0.84406 0.35613 0.66973 0.0
N255 N 0.82527 0.35661 0.64669 0.0
C256 C 0.80273 0.35564 0.66151 0.0
N257 N 0.79895 0.35418 0.69943 0.0
N258 N 0.81776 0.35370 0.72250 0.0
C259 C 0.85916 0.35419 0.73064 0.0
C260 C 0.87783 0.35370 0.75396 0.0
C261 C 0.78404 0.35614 0.63823 0.0
C262 C 0.76544 0.35664 0.61480 0.0
C263 C 0.59125 0.25841 0.32511 0.0
N264 N 0.60037 0.28314 0.32185 0.0
N265 N 0.61703 0.29979 0.34891 0.0
C266 C 0.62461 0.29173 0.37926 0.0
N267 N 0.61550 0.26696 0.38258 0.0
N268 N 0.59882 0.25030 0.35549 0.0
C269 C 0.57457 0.24177 0.29800 0.0
C270 C 0.55789 0.22495 0.27109 0.0
C271 C 0.64129 0.30852 0.40618 0.0
C272 C 0.65798 0.32541 0.43300 0.0
C273 C 0.59140 0.25849 0.68501 0.0
N274 N 0.58309 0.27202 0.66597 0.0
N275 N 0.59986 0.28873 0.63916 0.0
C276 C 0.62494 0.29194 0.63136 0.0
N277 N 0.63330 0.27841 0.65039 0.0
N278 N 0.61651 0.26168 0.67723 0.0
C279 C 0.57459 0.24177 0.71182 0.0
C280 C 0.55798 0.22499 0.73869 0.0
C281 C 0.64157 0.30870 0.60450 0.0
C282 C 0.65809 0.32549 0.57760 0.0
C283 C 0.69136 0.48692 0.30432 0.0
N284 N 0.71722 0.49066 0.30548 0.0
N285 N 0.72222 0.47617 0.32813 0.0
C286 C 0.70135 0.45794 0.34964 0.0
N287 N 0.67544 0.45416 0.34852 0.0
N288 N 0.67044 0.46866 0.32585 0.0
C289 C 0.68640 0.50144 0.28164 0.0
C290 C 0.68117 0.51581 0.25908 0.0
C291 C 0.70655 0.44354 0.37220 0.0
C292 C 0.71188 0.42921 0.39471 0.0
C293 C 0.69140 0.48699 0.70639 0.0
N294 N 0.71564 0.48775 0.70991 0.0
N295 N 0.72064 0.47328 0.68728 0.0
C296 C 0.70141 0.45803 0.66111 0.0
N297 N 0.67713 0.45723 0.65753 0.0
N298 N 0.67213 0.47172 0.68019 0.0
C299 C 0.68643 0.50149 0.72906 0.0
C300 C 0.68122 0.51589 0.75154 0.0
C301 C 0.70660 0.44362 0.63860 0.0
C302 C 0.71192 0.42926 0.61618 0.0
C303 C 0.84034 0.35469 0.30433 0.0
N304 N 0.81918 0.35618 0.28973 0.0
N305 N 0.80054 0.35665 0.31297 0.0
C306 C 0.80304 0.35564 0.35083 0.0
N307 N 0.82421 0.35416 0.36552 0.0
N308 N 0.84288 0.35369 0.34225 0.0
C309 C 0.85898 0.35423 0.28104 0.0
C310 C 0.87775 0.35375 0.25805 0.0
C311 C 0.78430 0.35612 0.37385 0.0
C312 C 0.76548 0.35662 0.39671 0.0
C313 C 0.00986 0.12838 0.00511 0.0
C314 C 0.98343 0.10760 0.00485 0.0
C315 C 0.97924 0.08427 0.00471 0.0
C316 C 0.00148 0.08172 0.00483 0.0
C317 C 0.02792 0.10250 0.00508 0.0
C318 C 0.03210 0.12583 0.00522 0.0
C319 C 0.01406 0.15171 0.00527 0.0
C320 C 0.01829 0.17505 0.00543 0.0
H321 H 0.96696 0.10947 0.00476 0.0
H322 H 0.95967 0.06888 0.00451 0.0
H323 H 0.04438 0.10061 0.00516 0.0
H324 H 0.05167 0.14122 0.00540 0.0
C325 C 0.14700 0.04076 0.00456 0.0
C326 C 0.14771 0.06261 0.00586 0.0
C327 C 0.12346 0.06200 0.00585 0.0
C328 C 0.09851 0.03956 0.00454 0.0
C329 C 0.09780 0.01771 0.00323 0.0
C330 C 0.12205 0.01832 0.00324 0.0
C331 C 0.17124 0.04136 0.00458 0.0
C332 C 0.19547 0.04192 0.00461 0.0
H333 H 0.16617 0.07923 0.00682 0.0
H334 H 0.12397 0.07817 0.00680 0.0
H335 H 0.07933 0.00110 0.00226 0.0
H336 H 0.12154 0.00215 0.00227 0.0
C337 C 0.88728 0.88130 0.00464 0.0
C338 C 0.91122 0.88139 0.00451 0.0
C339 C 0.93644 0.90360 0.00448 0.0
C340 C 0.93772 0.92573 0.00461 0.0
C341 C 0.91379 0.92565 0.00473 0.0
C342 C 0.88856 0.90343 0.00475 0.0
C343 C 0.86205 0.85910 0.00468 0.0
C344 C 0.83681 0.83690 0.00472 0.0
H345 H 0.91027 0.86501 0.00441 0.0
H346 H 0.95417 0.90367 0.00438 0.0
H347 H 0.91474 0.94202 0.00482 0.0
H348 H 0.87084 0.90336 0.00484 0.0
