data_{}
_symmetry_space_group_name_H-M    P1
_symmetry_Int_Tables_number       1
_symmetry_cell_setting            triclinic
loop_
_symmetry_equiv_pos_as_xyz
'x, y, z'
_cell_length_a     53.136
_cell_length_b     52.474
_cell_length_c     37.027
_cell_angle_alpha  94.901
_cell_angle_beta   85.112
_cell_angle_gamma  97.883
loop_
_atom_site_label
_atom_site_type_symbol
_atom_site_fract_x
_atom_site_fract_y
_atom_site_fract_z
_atom_type_partial_charge
C0 C 0.02339 0.04894 0.06987 0.0
C1 C 0.95882 0.02077 0.09310 0.0
Fe2 Fe 0.99551 0.00010 0.03550 0.0
Fe3 Fe 0.00658 0.00367 0.11364 0.0
O4 O 0.02271 0.03948 0.09944 0.0
O5 O 0.96402 0.01546 0.06039 0.0
O6 O 0.98750 0.96715 0.10694 0.0
O7 O 0.02997 0.98725 0.03150 0.0
O8 O 0.97939 0.96519 0.04969 0.0
O9 O 0.03808 0.98921 0.08875 0.0
C10 C 0.97871 0.95573 0.07926 0.0
C11 C 0.04328 0.98390 0.05604 0.0
O12 O 0.01460 0.03752 0.04220 0.0
O13 O 0.97213 0.01742 0.11763 0.0
Mg14 Mg 0.49065 0.55526 0.52886 0.0
C15 C 0.54181 0.43048 0.67514 0.0
Mg16 Mg 0.51146 0.44940 0.62013 0.0
Mg17 Mg 0.50105 0.50233 0.57450 0.0
C18 C 0.47630 0.47357 0.64359 0.0
C19 C 0.54133 0.50331 0.63212 0.0
C20 C 0.47559 0.55090 0.60564 0.0
C21 C 0.46030 0.57417 0.47385 0.0
O22 O 0.51685 0.52939 0.53775 0.0
O23 O 0.51555 0.54323 0.48440 0.0
O24 O 0.46959 0.49172 0.54140 0.0
O25 O 0.46385 0.52509 0.51200 0.0
O26 O 0.51661 0.47455 0.54339 0.0
O27 O 0.52899 0.44320 0.57206 0.0
O28 O 0.55263 0.45375 0.68481 0.0
O29 O 0.52890 0.42617 0.64883 0.0
O30 O 0.48527 0.47527 0.61124 0.0
O31 O 0.48656 0.46142 0.66459 0.0
O32 O 0.53252 0.51293 0.60759 0.0
O33 O 0.53827 0.47957 0.63699 0.0
C34 C 0.52582 0.53108 0.50540 0.0
O35 O 0.48550 0.53011 0.60560 0.0
O36 O 0.47312 0.56145 0.57693 0.0
O37 O 0.44948 0.55090 0.46418 0.0
O38 O 0.47321 0.57848 0.50016 0.0
C39 C 0.46077 0.50135 0.51687 0.0
C40 C 0.52652 0.45376 0.54335 0.0
C41 C 0.27500 0.46432 0.33803 0.0
C42 C 0.28675 0.44418 0.31147 0.0
C43 C 0.27211 0.43158 0.27901 0.0
C44 C 0.28357 0.41134 0.25226 0.0
C45 C 0.26872 0.39880 0.21991 0.0
C46 C 0.24247 0.40650 0.21444 0.0
C47 C 0.23106 0.42678 0.24110 0.0
C48 C 0.24588 0.43930 0.27340 0.0
C49 C 0.24339 0.37825 0.15627 0.0
C50 C 0.22627 0.37136 0.12460 0.0
C51 C 0.20565 0.34778 0.12564 0.0
C52 C 0.18547 0.34393 0.09758 0.0
C53 C 0.18775 0.36170 0.06609 0.0
C54 C 0.20989 0.38383 0.06326 0.0
C55 C 0.22915 0.38869 0.09260 0.0
C56 C 0.25004 0.41211 0.09150 0.0
C57 C 0.20397 0.32943 0.15638 0.0
C58 C 0.16734 0.35783 0.03829 0.0
C59 C 0.16278 0.32256 0.10112 0.0
C60 C 0.11635 0.31691 0.11510 0.0
C61 C 0.11820 0.28811 0.10527 0.0
C62 C 0.09377 0.26865 0.10390 0.0
C63 C 0.06754 0.27804 0.11236 0.0
C64 C 0.06572 0.30685 0.12249 0.0
C65 C 0.09016 0.32630 0.12385 0.0
C66 C 0.04316 0.25855 0.11060 0.0
C67 C 0.04514 0.22980 0.10029 0.0
C68 C 0.21203 0.40206 0.03242 0.0
C69 C 0.23137 0.40674 0.97041 0.0
C70 C 0.21980 0.43220 0.97250 0.0
C71 C 0.22874 0.45188 0.94405 0.0
C72 C 0.24926 0.44607 0.91367 0.0
C73 C 0.26075 0.42056 0.91157 0.0
C74 C 0.25180 0.40087 0.93997 0.0
C75 C 0.25844 0.46577 0.88537 0.0
C76 C 0.27913 0.45985 0.85531 0.0
O77 O 0.22794 0.39457 0.18267 0.0
O78 O 0.22358 0.38803 0.99990 0.0
O79 O 0.14022 0.33604 0.11526 0.0
H80 H 0.25554 0.46983 0.33355 0.0
H81 H 0.30620 0.43860 0.31585 0.0
H82 H 0.30299 0.40564 0.25640 0.0
H83 H 0.27717 0.38385 0.20003 0.0
H84 H 0.21166 0.43252 0.23689 0.0
H85 H 0.23744 0.45429 0.29319 0.0
H86 H 0.24704 0.36019 0.16897 0.0
H87 H 0.26210 0.38992 0.14665 0.0
H88 H 0.24602 0.42519 0.07022 0.0
H89 H 0.26943 0.40527 0.08423 0.0
H90 H 0.25004 0.42322 0.11934 0.0
H91 H 0.21432 0.33970 0.18035 0.0
H92 H 0.21339 0.31167 0.14592 0.0
H93 H 0.18318 0.32315 0.16550 0.0
H94 H 0.17152 0.37356 0.01839 0.0
H95 H 0.14784 0.35896 0.05331 0.0
H96 H 0.16747 0.33809 0.02283 0.0
H97 H 0.15928 0.31217 0.07332 0.0
H98 H 0.16642 0.30826 0.12099 0.0
H99 H 0.13764 0.28121 0.09886 0.0
H100 H 0.09508 0.24731 0.09654 0.0
H101 H 0.04630 0.31377 0.12888 0.0
H102 H 0.08886 0.34766 0.13119 0.0
H103 H 0.02368 0.26539 0.11687 0.0
H104 H 0.06464 0.22303 0.09406 0.0
H105 H 0.19255 0.40705 0.02702 0.0
H106 H 0.22519 0.42043 0.04005 0.0
H107 H 0.20478 0.43653 0.99521 0.0
H108 H 0.22025 0.47079 0.94554 0.0
H109 H 0.27595 0.41631 0.88905 0.0
H110 H 0.26040 0.38205 0.93862 0.0
H111 H 0.25000 0.48470 0.88668 0.0
H112 H 0.28752 0.44091 0.85410 0.0
C113 C 0.61054 0.24033 0.89920 0.0
C114 C 0.59536 0.21915 0.92160 0.0
C115 C 0.60748 0.20937 0.95321 0.0
C116 C 0.59256 0.18812 0.97581 0.0
C117 C 0.60489 0.17842 0.00733 0.0
C118 C 0.63209 0.18995 0.01612 0.0
C119 C 0.64695 0.21123 0.99361 0.0
C120 C 0.63464 0.22092 0.96214 0.0
C121 C 0.62580 0.16298 0.06974 0.0
C122 C 0.64116 0.15928 0.10170 0.0
C123 C 0.65884 0.13821 0.09824 0.0
C124 C 0.67778 0.13790 0.12732 0.0
C125 C 0.67686 0.15648 0.16180 0.0
C126 C 0.65740 0.17593 0.16672 0.0
C127 C 0.63956 0.17735 0.13659 0.0
C128 C 0.62157 0.19822 0.14007 0.0
C129 C 0.65907 0.11897 0.06435 0.0
C130 C 0.69603 0.15618 0.19064 0.0
C131 C 0.69791 0.11927 0.12186 0.0
C132 C 0.74421 0.11948 0.11038 0.0
C133 C 0.73835 0.09039 0.11524 0.0
C134 C 0.76032 0.07409 0.11518 0.0
C135 C 0.78812 0.08691 0.11025 0.0
C136 C 0.79397 0.11599 0.10508 0.0
C137 C 0.77199 0.13229 0.10515 0.0
C138 C 0.81004 0.07058 0.11057 0.0
C139 C 0.80402 0.04154 0.11591 0.0
C140 C 0.65670 0.19499 0.20063 0.0
C141 C 0.63605 0.19891 0.26230 0.0
C142 C 0.65102 0.22618 0.26538 0.0
C143 C 0.64375 0.24571 0.29663 0.0
C144 C 0.62149 0.23793 0.32463 0.0
C145 C 0.60659 0.21063 0.32155 0.0
C146 C 0.61388 0.19109 0.29035 0.0
C147 C 0.61398 0.25744 0.35572 0.0
C148 C 0.59156 0.24952 0.38336 0.0
O149 O 0.64420 0.18080 0.04713 0.0
O150 O 0.64230 0.18020 0.23075 0.0
O151 O 0.72273 0.13557 0.11164 0.0
H152 H 0.63067 0.24870 0.90611 0.0
H153 H 0.57523 0.21073 0.91478 0.0
H154 H 0.57244 0.17958 0.96921 0.0
H155 H 0.59389 0.16273 0.02414 0.0
H156 H 0.66705 0.21981 0.00010 0.0
H157 H 0.64564 0.23664 0.94542 0.0
H158 H 0.62017 0.14383 0.05364 0.0
H159 H 0.60823 0.17251 0.07997 0.0
H160 H 0.62668 0.21263 0.16398 0.0
H161 H 0.60101 0.18887 0.14475 0.0
H162 H 0.62384 0.20864 0.11397 0.0
H163 H 0.65071 0.12724 0.04122 0.0
H164 H 0.64701 0.10004 0.07115 0.0
H165 H 0.67940 0.11519 0.05570 0.0
H166 H 0.69328 0.17211 0.21299 0.0
H167 H 0.71620 0.15954 0.17721 0.0
H168 H 0.69290 0.13666 0.20283 0.0
H169 H 0.69926 0.11007 0.14831 0.0
H170 H 0.69300 0.10373 0.09920 0.0
H171 H 0.71774 0.08095 0.11905 0.0
H172 H 0.75603 0.05254 0.11886 0.0
H173 H 0.81456 0.12546 0.10130 0.0
H174 H 0.77627 0.15386 0.10148 0.0
H175 H 0.83066 0.07996 0.10690 0.0
H176 H 0.78338 0.03221 0.11956 0.0
H177 H 0.67675 0.20286 0.20839 0.0
H178 H 0.64608 0.21155 0.19507 0.0
H179 H 0.66733 0.23194 0.24442 0.0
H180 H 0.65476 0.26595 0.29897 0.0
H181 H 0.59012 0.20492 0.34232 0.0
H182 H 0.60277 0.17093 0.28787 0.0
H183 H 0.62494 0.27769 0.35823 0.0
H184 H 0.58064 0.22925 0.38073 0.0
C185 C 0.39302 0.76580 0.24974 0.0
C186 C 0.37224 0.75021 0.22729 0.0
C187 C 0.36243 0.76236 0.19568 0.0
C188 C 0.34159 0.74704 0.17303 0.0
C189 C 0.33185 0.75940 0.14152 0.0
C190 C 0.34296 0.78703 0.13279 0.0
C191 C 0.36383 0.80229 0.15535 0.0
C192 C 0.37355 0.78996 0.18681 0.0
C193 C 0.31635 0.78037 0.07912 0.0
C194 C 0.31252 0.79586 0.04717 0.0
C195 C 0.29149 0.81351 0.05064 0.0
C196 C 0.29096 0.83265 0.02158 0.0
C197 C 0.30936 0.83193 0.98713 0.0
C198 C 0.32880 0.81247 0.98221 0.0
C199 C 0.33041 0.79445 0.01231 0.0
C200 C 0.35124 0.77649 0.00884 0.0
C201 C 0.27245 0.81352 0.08450 0.0
C202 C 0.30884 0.85131 0.95832 0.0
C203 C 0.27233 0.85280 0.02705 0.0
C204 C 0.27202 0.89962 0.03860 0.0
C205 C 0.24331 0.89336 0.03369 0.0
C206 C 0.22695 0.91541 0.03376 0.0
C207 C 0.23932 0.94366 0.03875 0.0
C208 C 0.26802 0.94989 0.04397 0.0
C209 C 0.28438 0.92785 0.04389 0.0
C210 C 0.22292 0.96563 0.03845 0.0
C211 C 0.19427 0.95923 0.03305 0.0
C212 C 0.34765 0.81197 0.94832 0.0
C213 C 0.35176 0.79114 0.88663 0.0
C214 C 0.37856 0.80658 0.88361 0.0
C215 C 0.39796 0.79945 0.85237 0.0
C216 C 0.39050 0.77686 0.82433 0.0
C217 C 0.36367 0.76149 0.82735 0.0
C218 C 0.34428 0.76864 0.85853 0.0
C219 C 0.40988 0.76948 0.79326 0.0
C220 C 0.40230 0.74672 0.76557 0.0
O221 O 0.33377 0.79917 0.10178 0.0
O222 O 0.33319 0.79726 0.91816 0.0
O223 O 0.28817 0.87807 0.03733 0.0
H224 H 0.40107 0.78624 0.24288 0.0
H225 H 0.36413 0.72977 0.23407 0.0
H226 H 0.33336 0.72660 0.17959 0.0
H227 H 0.31646 0.74810 0.12467 0.0
H228 H 0.37209 0.82271 0.14872 0.0
H229 H 0.38897 0.80125 0.20357 0.0
H230 H 0.29747 0.77447 0.09518 0.0
H231 H 0.32596 0.76272 0.06888 0.0
H232 H 0.36543 0.78181 0.98496 0.0
H233 H 0.34223 0.75559 0.00411 0.0
H234 H 0.36152 0.77890 0.03495 0.0
H235 H 0.28073 0.80517 0.10763 0.0
H236 H 0.25387 0.80112 0.07765 0.0
H237 H 0.26849 0.83404 0.09317 0.0
H238 H 0.32463 0.84871 0.93599 0.0
H239 H 0.31194 0.87175 0.97179 0.0
H240 H 0.28957 0.84793 0.94610 0.0
H241 H 0.26321 0.85406 0.00010 0.0
H242 H 0.25701 0.84766 0.04969 0.0
H243 H 0.23421 0.87243 0.02984 0.0
H244 H 0.20569 0.91082 0.03004 0.0
H245 H 0.27715 0.97081 0.04780 0.0
H246 H 0.30565 0.93241 0.04760 0.0
H247 H 0.23197 0.98659 0.04216 0.0
H248 H 0.18528 0.93825 0.02936 0.0
H249 H 0.35521 0.83233 0.94061 0.0
H250 H 0.36415 0.80142 0.95389 0.0
H251 H 0.38407 0.82314 0.90460 0.0
H252 H 0.41784 0.81081 0.85008 0.0
H253 H 0.35821 0.74477 0.80655 0.0
H254 H 0.32446 0.75718 0.86096 0.0
H255 H 0.42979 0.78079 0.79079 0.0
H256 H 0.38237 0.73546 0.76815 0.0
C257 C 0.72583 0.54169 0.81130 0.0
C258 C 0.74551 0.52947 0.83010 0.0
C259 C 0.75813 0.54415 0.86307 0.0
C260 C 0.77791 0.53223 0.88211 0.0
C261 C 0.79048 0.54710 0.91502 0.0
C262 C 0.78327 0.57385 0.92875 0.0
C263 C 0.76345 0.58571 0.90980 0.0
C264 C 0.75090 0.57086 0.87694 0.0
C265 C 0.81110 0.57251 0.97982 0.0
C266 C 0.81813 0.58977 0.01398 0.0
C267 C 0.84167 0.61034 0.01223 0.0
C268 C 0.84576 0.63076 0.04426 0.0
C269 C 0.82822 0.62871 0.07952 0.0
C270 C 0.80608 0.60656 0.08235 0.0
C271 C 0.80101 0.58710 0.04950 0.0
C272 C 0.77763 0.56624 0.05120 0.0
C273 C 0.85979 0.61179 0.97743 0.0
C274 C 0.83232 0.64935 0.11134 0.0
C275 C 0.86715 0.65347 0.04104 0.0
C276 C 0.87339 0.70049 0.03700 0.0
C277 C 0.90175 0.69820 0.03937 0.0
C278 C 0.92127 0.72270 0.04195 0.0
C279 C 0.91240 0.74944 0.04216 0.0
C280 C 0.88404 0.75170 0.03948 0.0
C281 C 0.86451 0.72720 0.03690 0.0
C282 C 0.93196 0.77389 0.04511 0.0
C283 C 0.96026 0.77146 0.04794 0.0
C284 C 0.78808 0.60465 0.11709 0.0
C285 C 0.78319 0.58510 0.17554 0.0
C286 C 0.75826 0.59720 0.18246 0.0
C287 C 0.73873 0.58842 0.21352 0.0
C288 C 0.74417 0.56752 0.23749 0.0
C289 C 0.76914 0.55549 0.23058 0.0
C290 C 0.78868 0.56429 0.19958 0.0
C291 C 0.72461 0.55848 0.26835 0.0
C292 C 0.73015 0.53741 0.29193 0.0
O293 O 0.79524 0.58841 0.96115 0.0
O294 O 0.80174 0.59273 0.14406 0.0
O295 O 0.85418 0.67655 0.03567 0.0
H296 H 0.72067 0.56151 0.82186 0.0
H297 H 0.75072 0.50966 0.81963 0.0
H298 H 0.78325 0.51244 0.87185 0.0
H299 H 0.80510 0.53832 0.92920 0.0
H300 H 0.75807 0.60548 0.92013 0.0
H301 H 0.73625 0.57965 0.86284 0.0
H302 H 0.82885 0.56854 0.96184 0.0
H303 H 0.79933 0.55369 0.98773 0.0
H304 H 0.76480 0.57051 0.07665 0.0
H305 H 0.78409 0.54647 0.05209 0.0
H306 H 0.76668 0.56641 0.02607 0.0
H307 H 0.84952 0.60144 0.95344 0.0
H308 H 0.87715 0.60198 0.98128 0.0
H309 H 0.86627 0.63279 0.97184 0.0
H310 H 0.81675 0.64534 0.13405 0.0
H311 H 0.83149 0.66915 0.10134 0.0
H312 H 0.85177 0.64894 0.12197 0.0
H313 H 0.87743 0.65687 0.06716 0.0
H314 H 0.88119 0.64958 0.01681 0.0
H315 H 0.90826 0.67838 0.03937 0.0
H316 H 0.94228 0.72106 0.04379 0.0
H317 H 0.87749 0.77151 0.03950 0.0
H318 H 0.84348 0.72882 0.03507 0.0
H319 H 0.92551 0.79375 0.04524 0.0
H320 H 0.96666 0.75158 0.04778 0.0
H321 H 0.78344 0.62449 0.12845 0.0
H322 H 0.76978 0.59157 0.11073 0.0
H323 H 0.75422 0.61250 0.16446 0.0
H324 H 0.72023 0.59731 0.21869 0.0
H325 H 0.77310 0.54001 0.24837 0.0
H326 H 0.80710 0.55529 0.19425 0.0
H327 H 0.70608 0.56732 0.27369 0.0
H328 H 0.74870 0.52862 0.28649 0.0
C329 C 0.02878 0.09399 0.08283 0.0
C330 C 0.02855 0.12341 0.08672 0.0
C331 C 0.02834 0.15284 0.09061 0.0
C332 C 0.02815 0.18227 0.09450 0.0
C333 C 0.92807 0.03179 0.08921 0.0
C334 C 0.89904 0.03130 0.09640 0.0
C335 C 0.87001 0.03080 0.10362 0.0
C336 C 0.84098 0.03029 0.11086 0.0
C337 C 0.07402 0.97290 0.05989 0.0
C338 C 0.10306 0.97341 0.05266 0.0
C339 C 0.13209 0.97390 0.04541 0.0
C340 C 0.16111 0.97438 0.03813 0.0
C341 C 0.97331 0.91069 0.06628 0.0
C342 C 0.97354 0.88126 0.06234 0.0
C343 C 0.97374 0.85184 0.05843 0.0
C344 C 0.97394 0.82241 0.05455 0.0
C345 C 0.44838 0.48047 0.66392 0.0
C346 C 0.42395 0.47949 0.68961 0.0
C347 C 0.39954 0.47848 0.71533 0.0
C348 C 0.38608 0.50273 0.72380 0.0
C349 C 0.36166 0.50172 0.74951 0.0
C350 C 0.35072 0.47647 0.76678 0.0
C351 C 0.36417 0.45223 0.75830 0.0
C352 C 0.38858 0.45323 0.73257 0.0
C353 C 0.32630 0.47547 0.79248 0.0
C354 C 0.30189 0.47443 0.81820 0.0
H355 H 0.39419 0.52142 0.71105 0.0
H356 H 0.35168 0.51965 0.75575 0.0
H357 H 0.35607 0.43354 0.77108 0.0
H358 H 0.39854 0.43528 0.72628 0.0
C359 C 0.54960 0.39756 0.71615 0.0
C360 C 0.55692 0.37661 0.73849 0.0
C361 C 0.56423 0.35568 0.76087 0.0
C362 C 0.56622 0.32836 0.74302 0.0
C363 C 0.57355 0.30743 0.76539 0.0
C364 C 0.57884 0.31381 0.80563 0.0
C365 C 0.57685 0.34113 0.82348 0.0
C366 C 0.56956 0.36207 0.80110 0.0
C367 C 0.58616 0.29287 0.82800 0.0
C368 C 0.59347 0.27195 0.85040 0.0
H369 H 0.56227 0.32362 0.71324 0.0
H370 H 0.57504 0.28721 0.75216 0.0
H371 H 0.58078 0.34585 0.85327 0.0
H372 H 0.56809 0.38229 0.81431 0.0
C373 C 0.53618 0.43157 0.51846 0.0
C374 C 0.54386 0.40576 0.50108 0.0
C375 C 0.55152 0.37994 0.48374 0.0
C376 C 0.55720 0.37617 0.44229 0.0
C377 C 0.56487 0.35036 0.42494 0.0
C378 C 0.56683 0.32830 0.44905 0.0
C379 C 0.56115 0.33208 0.49050 0.0
C380 C 0.55351 0.35790 0.50784 0.0
C381 C 0.57449 0.30249 0.43170 0.0
C382 C 0.58215 0.27666 0.41439 0.0
H383 H 0.55572 0.39248 0.42444 0.0
H384 H 0.56909 0.34757 0.39426 0.0
H385 H 0.56261 0.31575 0.50834 0.0
H386 H 0.54931 0.36070 0.53853 0.0
C387 C 0.45253 0.60710 0.43282 0.0
C388 C 0.44523 0.62805 0.41047 0.0
C389 C 0.43791 0.64898 0.38809 0.0
C390 C 0.43463 0.67591 0.40641 0.0
C391 C 0.42732 0.69685 0.38402 0.0
C392 C 0.42326 0.69083 0.34333 0.0
C393 C 0.42654 0.66390 0.32501 0.0
C394 C 0.43387 0.64298 0.34739 0.0
C395 C 0.41595 0.71177 0.32095 0.0
C396 C 0.40863 0.73268 0.29855 0.0
H397 H 0.43761 0.68035 0.43654 0.0
H398 H 0.42492 0.71679 0.39757 0.0
H399 H 0.42354 0.65946 0.29488 0.0
H400 H 0.43631 0.62304 0.33383 0.0
C401 C 0.46595 0.57310 0.63050 0.0
C402 C 0.45830 0.59894 0.64781 0.0
C403 C 0.45063 0.62475 0.66515 0.0
C404 C 0.47071 0.64884 0.66769 0.0
C405 C 0.46304 0.67466 0.68502 0.0
C406 C 0.43530 0.67638 0.69986 0.0
C407 C 0.41523 0.65229 0.69732 0.0
C408 C 0.42289 0.62648 0.67996 0.0
C409 C 0.42764 0.70220 0.71719 0.0
C410 C 0.41995 0.72800 0.73454 0.0
H411 H 0.49124 0.64757 0.65675 0.0
H412 H 0.47789 0.69250 0.68686 0.0
H413 H 0.39470 0.65357 0.70829 0.0
H414 H 0.40803 0.60865 0.67807 0.0
C415 C 0.55371 0.52418 0.48506 0.0
C416 C 0.57811 0.52517 0.45932 0.0
C417 C 0.60253 0.52617 0.43361 0.0
C418 C 0.60966 0.50139 0.41220 0.0
C419 C 0.63407 0.50240 0.38648 0.0
C420 C 0.65137 0.52819 0.38221 0.0
C421 C 0.64424 0.55297 0.40361 0.0
C422 C 0.61981 0.55197 0.42931 0.0
C423 C 0.67579 0.52919 0.35649 0.0
C424 C 0.70021 0.53023 0.33079 0.0
H425 H 0.59688 0.48229 0.41540 0.0
H426 H 0.63934 0.48406 0.37061 0.0
H427 H 0.65704 0.57207 0.40044 0.0
H428 H 0.61453 0.57032 0.44515 0.0
C429 C 0.44220 0.49140 0.49434 0.0
C430 C 0.41790 0.48862 0.47367 0.0
C431 C 0.39358 0.48581 0.45303 0.0
C432 C 0.38550 0.50953 0.43758 0.0
C433 C 0.36120 0.50673 0.41692 0.0
C434 C 0.34495 0.48020 0.41177 0.0
C435 C 0.35303 0.45648 0.42721 0.0
C436 C 0.37735 0.45928 0.44783 0.0
C437 C 0.32064 0.47740 0.39111 0.0
C438 C 0.29633 0.47457 0.37048 0.0
H439 H 0.39751 0.52917 0.44144 0.0
H440 H 0.35523 0.52428 0.40546 0.0
H441 H 0.34101 0.43684 0.42337 0.0
H442 H 0.38334 0.44172 0.45926 0.0
C443 C 0.55993 0.51328 0.65463 0.0
C444 C 0.58426 0.51610 0.67525 0.0
C445 C 0.60857 0.51891 0.69589 0.0
C446 C 0.63484 0.51964 0.67468 0.0
C447 C 0.65916 0.52246 0.69533 0.0
C448 C 0.65718 0.52451 0.73719 0.0
C449 C 0.63091 0.52378 0.75840 0.0
C450 C 0.60660 0.52099 0.73775 0.0
C451 C 0.68150 0.52732 0.75783 0.0
C452 C 0.70579 0.53013 0.77851 0.0
H453 H 0.63630 0.51809 0.64370 0.0
H454 H 0.67861 0.52302 0.67963 0.0
H455 H 0.62946 0.52531 0.78939 0.0
H456 H 0.58715 0.52045 0.75345 0.0
