data_{}
_symmetry_space_group_name_H-M    P1
_symmetry_Int_Tables_number       1
_symmetry_cell_setting            triclinic
loop_
_symmetry_equiv_pos_as_xyz
'x, y, z'
_cell_length_a     50.369
_cell_length_b     48.125
_cell_length_c     65.457
_cell_angle_alpha  89.234
_cell_angle_beta   91.272
_cell_angle_gamma  89.096
loop_
_atom_site_label
_atom_site_type_symbol
_atom_site_fract_x
_atom_site_fract_y
_atom_site_fract_z
_atom_type_partial_charge
O0 O 0.99765 0.00445 0.00266 0.0
H1 H 0.06274 0.03849 0.04304 0.0
H2 H 0.01635 0.01919 0.09039 0.0
H3 H 0.98420 0.02557 0.03283 0.0
H4 H 0.00801 0.99331 0.96921 0.0
H5 H 0.03422 0.03826 0.92157 0.0
H6 H 0.03573 0.07087 0.97869 0.0
C7 C 0.02377 0.03405 0.03483 0.0
C8 C 0.04570 0.03458 0.04820 0.0
C9 C 0.01838 0.02270 0.07619 0.0
C10 C 0.04297 0.02954 0.06854 0.0
C11 C 0.99990 0.02671 0.04191 0.0
C12 C 0.99675 0.02106 0.06269 0.0
C13 C 0.02735 0.03959 0.01306 0.0
C14 C 0.01998 0.03210 0.97703 0.0
C15 C 0.01491 0.01012 0.96390 0.0
C16 C 0.03083 0.03650 0.93575 0.0
C17 C 0.01975 0.01247 0.94360 0.0
C18 C 0.03156 0.05610 0.96976 0.0
C19 C 0.03689 0.05795 0.94903 0.0
C20 C 0.01453 0.02894 0.99878 0.0
O21 O 0.05359 0.05217 0.00931 0.0
Si22 Si 0.53072 0.53056 0.51248 0.0
C23 C 0.59128 0.54949 0.55385 0.0
C24 C 0.50822 0.58855 0.46756 0.0
C25 C 0.50982 0.56531 0.48047 0.0
C26 C 0.53092 0.56168 0.49504 0.0
C27 C 0.55080 0.58151 0.49531 0.0
C28 C 0.54960 0.60436 0.48198 0.0
C29 C 0.52833 0.60793 0.46846 0.0
C30 C 0.50646 0.45873 0.48259 0.0
C31 C 0.50811 0.48031 0.49643 0.0
C32 C 0.52768 0.49998 0.49515 0.0
C33 C 0.54613 0.49782 0.47946 0.0
C34 C 0.54500 0.47652 0.46560 0.0
C35 C 0.52540 0.45696 0.46703 0.0
H36 H 0.62832 0.53314 0.55513 0.0
C37 C 0.45955 0.55618 0.53743 0.0
C38 C 0.45484 0.53583 0.55195 0.0
C39 C 0.47270 0.51413 0.55514 0.0
C40 C 0.49548 0.51285 0.54388 0.0
C41 C 0.50096 0.53294 0.52910 0.0
H42 H 0.52744 0.62351 0.45988 0.0
C43 C 0.48242 0.55428 0.52615 0.0
H44 H 0.49680 0.55190 0.47953 0.0
H45 H 0.52464 0.44256 0.45774 0.0
H46 H 0.43953 0.53681 0.55959 0.0
C47 C 0.61184 0.53194 0.54851 0.0
H48 H 0.56506 0.57945 0.50450 0.0
H49 H 0.49579 0.48154 0.50675 0.0
H50 H 0.55935 0.51101 0.47839 0.0
C51 C 0.60805 0.51230 0.53314 0.0
C52 C 0.58363 0.51142 0.52281 0.0
C53 C 0.56224 0.52920 0.52787 0.0
C54 C 0.56695 0.54765 0.54352 0.0
H55 H 0.50749 0.49820 0.54619 0.0
H56 H 0.48550 0.56783 0.51624 0.0
H57 H 0.58136 0.49882 0.51229 0.0
H58 H 0.55317 0.55944 0.54734 0.0
C59 C 0.88083 0.39858 0.68790 0.0
C60 C 0.89402 0.37012 0.68394 0.0
C61 C 0.92245 0.36397 0.69208 0.0
C62 C 0.93595 0.33563 0.68819 0.0
C63 C 0.96443 0.32971 0.69635 0.0
C64 C 0.97933 0.35216 0.70833 0.0
C65 C 0.96581 0.38042 0.71227 0.0
C66 C 0.93737 0.38634 0.70413 0.0
C67 C 0.01574 0.31656 0.71416 0.0
C68 C 0.04240 0.31505 0.72594 0.0
C69 C 0.06806 0.32295 0.71515 0.0
C70 C 0.09372 0.32663 0.72794 0.0
C71 C 0.09448 0.31916 0.75090 0.0
C72 C 0.06928 0.30870 0.76123 0.0
C73 C 0.04320 0.30670 0.74872 0.0
C74 C 0.01747 0.29848 0.75938 0.0
C75 C 0.06752 0.32940 0.69200 0.0
C76 C 0.12019 0.32313 0.76362 0.0
C77 C 0.11859 0.33813 0.71790 0.0
C78 C 0.14646 0.37964 0.71791 0.0
C79 C 0.16446 0.36261 0.70391 0.0
C80 C 0.19127 0.37432 0.69735 0.0
C81 C 0.20002 0.40304 0.70480 0.0
C82 C 0.18190 0.42017 0.71867 0.0
C83 C 0.15509 0.40846 0.72524 0.0
C84 C 0.22696 0.41453 0.69836 0.0
C85 C 0.24502 0.39721 0.68455 0.0
C86 C 0.06963 0.30178 0.78424 0.0
C87 C 0.07782 0.26271 0.80810 0.0
C88 C 0.07082 0.28326 0.82505 0.0
C89 C 0.06510 0.27231 0.84668 0.0
C90 C 0.06632 0.24085 0.85127 0.0
C91 C 0.07340 0.22034 0.83431 0.0
C92 C 0.07916 0.23128 0.81270 0.0
C93 C 0.06037 0.22976 0.87280 0.0
C94 C 0.06142 0.19825 0.87717 0.0
O95 O 0.00707 0.34646 0.71657 0.0
O96 O 0.08214 0.27325 0.78670 0.0
O97 O 0.12064 0.36778 0.72487 0.0
H98 H 0.89214 0.41496 0.69684 0.0
H99 H 0.88278 0.35368 0.67500 0.0
H100 H 0.92489 0.31906 0.67927 0.0
H101 H 0.97446 0.30875 0.69352 0.0
H102 H 0.97686 0.39696 0.72123 0.0
H103 H 0.92736 0.40727 0.70700 0.0
H104 H 0.01835 0.31145 0.69736 0.0
H105 H 0.00010 0.30198 0.72148 0.0
H106 H 0.02101 0.29843 0.77664 0.0
H107 H 0.01132 0.27688 0.75434 0.0
H108 H 0.00106 0.31419 0.75504 0.0
H109 H 0.04631 0.33471 0.68668 0.0
H110 H 0.07490 0.31032 0.68352 0.0
H111 H 0.08094 0.34764 0.68858 0.0
H112 H 0.11647 0.31796 0.78035 0.0
H113 H 0.12658 0.34566 0.76210 0.0
H114 H 0.13652 0.30886 0.75773 0.0
H115 H 0.13686 0.32560 0.72335 0.0
H116 H 0.11649 0.33745 0.70054 0.0
H117 H 0.15798 0.34129 0.69848 0.0
H118 H 0.20466 0.36171 0.68701 0.0
H119 H 0.18835 0.44148 0.72412 0.0
H120 H 0.14168 0.42105 0.73559 0.0
H121 H 0.23355 0.43580 0.70381 0.0
H122 H 0.23838 0.37596 0.67912 0.0
H123 H 0.08158 0.31760 0.79324 0.0
H124 H 0.04836 0.30143 0.78984 0.0
H125 H 0.06971 0.30651 0.82154 0.0
H126 H 0.05986 0.28746 0.85926 0.0
H127 H 0.07428 0.19705 0.83776 0.0
H128 H 0.08423 0.21612 0.80009 0.0
H129 H 0.05515 0.24481 0.88546 0.0
H130 H 0.06664 0.18328 0.86447 0.0
C131 C 0.68004 0.87427 0.33068 0.0
C132 C 0.70343 0.89117 0.33917 0.0
C133 C 0.71337 0.91636 0.32697 0.0
C134 C 0.73681 0.93343 0.33523 0.0
C135 C 0.74666 0.95856 0.32287 0.0
C136 C 0.73307 0.96652 0.30228 0.0
C137 C 0.70960 0.94952 0.29407 0.0
C138 C 0.69978 0.92443 0.30641 0.0
C139 C 0.76258 0.00803 0.30180 0.0
C140 C 0.76609 0.03352 0.28786 0.0
C141 C 0.78609 0.03237 0.27049 0.0
C142 C 0.78580 0.05576 0.25424 0.0
C143 C 0.76792 0.08171 0.25674 0.0
C144 C 0.74975 0.08391 0.27527 0.0
C145 C 0.74880 0.05975 0.29082 0.0
C146 C 0.72902 0.06089 0.30841 0.0
C147 C 0.80471 0.00686 0.26843 0.0
C148 C 0.76759 0.10491 0.24031 0.0
C149 C 0.80307 0.05315 0.23531 0.0
C150 C 0.79897 0.04689 0.19815 0.0
C151 C 0.82920 0.05104 0.19843 0.0
C152 C 0.84412 0.05263 0.17819 0.0
C153 C 0.82877 0.05006 0.15771 0.0
C154 C 0.79855 0.04567 0.15746 0.0
C155 C 0.78363 0.04409 0.17770 0.0
C156 C 0.84374 0.05193 0.13751 0.0
C157 C 0.87394 0.05644 0.13790 0.0
C158 C 0.73136 0.10942 0.27768 0.0
C159 C 0.73072 0.15552 0.29319 0.0
C160 C 0.70188 0.15803 0.28503 0.0
C161 C 0.68344 0.18112 0.29291 0.0
C162 C 0.69389 0.20159 0.30897 0.0
C163 C 0.72276 0.19909 0.31708 0.0
C164 C 0.74120 0.17604 0.30918 0.0
C165 C 0.67548 0.22454 0.31706 0.0
C166 C 0.68607 0.24473 0.33324 0.0
O167 O 0.74236 0.99123 0.29020 0.0
O168 O 0.74840 0.13213 0.28626 0.0
O169 O 0.78426 0.04626 0.21793 0.0
H170 H 0.67017 0.88048 0.31541 0.0
H171 H 0.71336 0.88503 0.35443 0.0
H172 H 0.74687 0.92747 0.35046 0.0
H173 H 0.76397 0.97126 0.32896 0.0
H174 H 0.69952 0.95554 0.27886 0.0
H175 H 0.68244 0.91180 0.30032 0.0
H176 H 0.78206 0.99585 0.30398 0.0
H177 H 0.75452 0.01467 0.31715 0.0
H178 H 0.71464 0.07917 0.30572 0.0
H179 H 0.74026 0.06359 0.32355 0.0
H180 H 0.71749 0.04071 0.30889 0.0
H181 H 0.79626 0.98842 0.27711 0.0
H182 H 0.82511 0.01189 0.27519 0.0
H183 H 0.80675 0.00143 0.25164 0.0
H184 H 0.75221 0.12152 0.24426 0.0
H185 H 0.76224 0.09563 0.22486 0.0
H186 H 0.78807 0.11460 0.23959 0.0
H187 H 0.81310 0.07377 0.23207 0.0
H188 H 0.81863 0.03587 0.23764 0.0
H189 H 0.84050 0.05307 0.21361 0.0
H190 H 0.86650 0.05577 0.17836 0.0
H191 H 0.78721 0.04366 0.14229 0.0
H192 H 0.76123 0.04096 0.17755 0.0
H193 H 0.83249 0.05001 0.12230 0.0
H194 H 0.88513 0.05834 0.15314 0.0
H195 H 0.72203 0.11628 0.26238 0.0
H196 H 0.71514 0.10415 0.28891 0.0
H197 H 0.69416 0.14269 0.27328 0.0
H198 H 0.66205 0.18301 0.28693 0.0
H199 H 0.73043 0.21427 0.32897 0.0
H200 H 0.76253 0.17403 0.31525 0.0
H201 H 0.65408 0.22656 0.31112 0.0
H202 H 0.70748 0.24262 0.33915 0.0
C203 C 0.82469 0.68785 0.68271 0.0
C204 C 0.83842 0.67393 0.70155 0.0
C205 C 0.86668 0.68248 0.70798 0.0
C206 C 0.88073 0.66870 0.72675 0.0
C207 C 0.90904 0.67735 0.73303 0.0
C208 C 0.92324 0.69971 0.72051 0.0
C209 C 0.90917 0.71354 0.70181 0.0
C210 C 0.88090 0.70490 0.69553 0.0
C211 C 0.96000 0.69622 0.74697 0.0
C212 C 0.98631 0.71093 0.75117 0.0
C213 C 0.01218 0.69917 0.74246 0.0
C214 C 0.03739 0.71678 0.74330 0.0
C215 C 0.03754 0.74437 0.75496 0.0
C216 C 0.01219 0.75475 0.76534 0.0
C217 C 0.98653 0.73802 0.76341 0.0
C218 C 0.96059 0.74952 0.77230 0.0
C219 C 0.01226 0.67102 0.73147 0.0
C220 C 0.06280 0.76198 0.75558 0.0
C221 C 0.06239 0.70710 0.73227 0.0
C222 C 0.08964 0.71962 0.70292 0.0
C223 C 0.10832 0.69610 0.71089 0.0
C224 C 0.13515 0.69099 0.70067 0.0
C225 C 0.14325 0.70940 0.68250 0.0
C226 C 0.12444 0.73278 0.67443 0.0
C227 C 0.09761 0.73790 0.68465 0.0
C228 C 0.17022 0.70438 0.67247 0.0
C229 C 0.18896 0.68104 0.68069 0.0
C230 C 0.01193 0.78257 0.77663 0.0
C231 C 0.01997 0.80164 0.81073 0.0
C232 C 0.01213 0.83000 0.80105 0.0
C233 C 0.00591 0.85483 0.81481 0.0
C234 C 0.00746 0.85119 0.83822 0.0
C235 C 0.01536 0.82283 0.84787 0.0
C236 C 0.02163 0.79803 0.83411 0.0
C237 C 0.00100 0.87586 0.85206 0.0
C238 C 0.00239 0.87191 0.87544 0.0
O239 O 0.95080 0.70853 0.72667 0.0
O240 O 0.02479 0.77699 0.79731 0.0
O241 O 0.06379 0.72520 0.71335 0.0
H242 H 0.83547 0.70441 0.67362 0.0
H243 H 0.82771 0.65736 0.71068 0.0
H244 H 0.87019 0.65211 0.73598 0.0
H245 H 0.91947 0.66721 0.74693 0.0
H246 H 0.91970 0.73017 0.69262 0.0
H247 H 0.87049 0.71509 0.68166 0.0
H248 H 0.96320 0.67279 0.74586 0.0
H249 H 0.94520 0.70137 0.75935 0.0
H250 H 0.96360 0.77193 0.77714 0.0
H251 H 0.95493 0.73640 0.78612 0.0
H252 H 0.94409 0.74876 0.76013 0.0
H253 H 0.99113 0.66584 0.72637 0.0
H254 H 0.02019 0.65413 0.74248 0.0
H255 H 0.02551 0.67206 0.71761 0.0
H256 H 0.05864 0.78219 0.76391 0.0
H257 H 0.06890 0.76685 0.73927 0.0
H258 H 0.07953 0.74988 0.76388 0.0
H259 H 0.08068 0.71026 0.74250 0.0
H260 H 0.06084 0.68431 0.72792 0.0
H261 H 0.10233 0.68257 0.72441 0.0
H262 H 0.14905 0.67362 0.70658 0.0
H263 H 0.13040 0.74634 0.66092 0.0
H264 H 0.08369 0.75528 0.67876 0.0
H265 H 0.17631 0.71793 0.65899 0.0
H266 H 0.18280 0.66752 0.69416 0.0
H267 H 0.02336 0.79904 0.76795 0.0
H268 H 0.99049 0.78987 0.77856 0.0
H269 H 0.01078 0.83254 0.78372 0.0
H270 H 0.00010 0.87585 0.80770 0.0
H271 H 0.01649 0.82021 0.86521 0.0
H272 H 0.02731 0.77697 0.84122 0.0
H273 H 0.99517 0.89695 0.84504 0.0
H274 H 0.00823 0.85079 0.88240 0.0
C275 C 0.36899 0.81497 0.32510 0.0
C276 C 0.34196 0.82888 0.32938 0.0
C277 C 0.33594 0.85859 0.32139 0.0
C278 C 0.30903 0.87282 0.32560 0.0
C279 C 0.30323 0.90260 0.31758 0.0
C280 C 0.32436 0.91806 0.30542 0.0
C281 C 0.35121 0.90380 0.30116 0.0
C282 C 0.35700 0.87408 0.30916 0.0
C283 C 0.29031 0.95622 0.30005 0.0
C284 C 0.28861 0.98405 0.28837 0.0
C285 C 0.29654 0.01095 0.29915 0.0
C286 C 0.29977 0.03771 0.28641 0.0
C287 C 0.29197 0.03838 0.26351 0.0
C288 C 0.28161 0.01198 0.25321 0.0
C289 C 0.27998 0.98477 0.26566 0.0
C290 C 0.27175 0.95780 0.25501 0.0
C291 C 0.30337 0.01050 0.32224 0.0
C292 C 0.29548 0.06520 0.25084 0.0
C293 C 0.31112 0.06377 0.29641 0.0
C294 C 0.35085 0.09282 0.29608 0.0
C295 C 0.33504 0.11179 0.31030 0.0
C296 C 0.34649 0.13985 0.31683 0.0
C297 C 0.37374 0.14889 0.30913 0.0
C298 C 0.38965 0.12979 0.29503 0.0
C299 C 0.37819 0.10173 0.28849 0.0
C300 C 0.38499 0.17710 0.31554 0.0
C301 C 0.36890 0.19612 0.32957 0.0
C302 C 0.27434 0.01222 0.23027 0.0
C303 C 0.23636 0.02076 0.20681 0.0
C304 C 0.25548 0.01327 0.18964 0.0
C305 C 0.24439 0.00718 0.16809 0.0
C306 C 0.21420 0.00852 0.16381 0.0
C307 C 0.19512 0.01608 0.18099 0.0
C308 C 0.20621 0.02221 0.20252 0.0
C309 C 0.20298 0.00218 0.14236 0.0
C310 C 0.17276 0.00335 0.13831 0.0
O311 O 0.31877 0.94705 0.29732 0.0
O312 O 0.24706 0.02538 0.22813 0.0
O313 O 0.33924 0.06579 0.28916 0.0
H314 H 0.38441 0.82671 0.31603 0.0
H315 H 0.32649 0.81722 0.33844 0.0
H316 H 0.29343 0.86135 0.33464 0.0
H317 H 0.28332 0.91317 0.32065 0.0
H318 H 0.36678 0.91527 0.29207 0.0
H319 H 0.37689 0.86352 0.30605 0.0
H320 H 0.28592 0.95907 0.31691 0.0
H321 H 0.27613 0.94074 0.29283 0.0
H322 H 0.27121 0.96139 0.23775 0.0
H323 H 0.25124 0.95146 0.26024 0.0
H324 H 0.28683 0.94061 0.25914 0.0
H325 H 0.30853 0.98833 0.32745 0.0
H326 H 0.28541 0.01833 0.33093 0.0
H327 H 0.32093 0.02453 0.32553 0.0
H328 H 0.29005 0.06122 0.23414 0.0
H329 H 0.31707 0.07184 0.25215 0.0
H330 H 0.28207 0.08237 0.25691 0.0
H331 H 0.29905 0.08289 0.29114 0.0
H332 H 0.31096 0.06168 0.31377 0.0
H333 H 0.31481 0.10511 0.31592 0.0
H334 H 0.33479 0.15397 0.32733 0.0
H335 H 0.40987 0.13645 0.28939 0.0
H336 H 0.38988 0.08759 0.27798 0.0
H337 H 0.40516 0.18389 0.30989 0.0
H338 H 0.34874 0.18926 0.33519 0.0
H339 H 0.28923 0.02463 0.22115 0.0
H340 H 0.27378 0.98993 0.22460 0.0
H341 H 0.27779 0.01206 0.19292 0.0
H342 H 0.25848 0.00157 0.15534 0.0
H343 H 0.17279 0.01704 0.17778 0.0
H344 H 0.19212 0.02764 0.21529 0.0
H345 H 0.21698 0.99660 0.12954 0.0
H346 H 0.15884 0.00892 0.15118 0.0
C347 C 0.66293 0.45351 0.56258 0.0
C348 C 0.68100 0.47528 0.57252 0.0
C349 C 0.67590 0.50645 0.56813 0.0
C350 C 0.65274 0.51584 0.55377 0.0
C351 C 0.63468 0.49408 0.54382 0.0
C352 C 0.63977 0.46291 0.54823 0.0
C353 C 0.70421 0.46588 0.58682 0.0
C354 C 0.72745 0.45649 0.60111 0.0
C355 C 0.75072 0.44712 0.61537 0.0
C356 C 0.77402 0.43776 0.62959 0.0
C357 C 0.79734 0.42841 0.64380 0.0
C358 C 0.81569 0.45020 0.65341 0.0
C359 C 0.83908 0.44085 0.66754 0.0
C360 C 0.84412 0.40971 0.67209 0.0
C361 C 0.82575 0.38792 0.66250 0.0
C362 C 0.80236 0.39727 0.64836 0.0
H363 H 0.66669 0.43044 0.56584 0.0
H364 H 0.68927 0.52256 0.57550 0.0
H365 H 0.64897 0.53892 0.55052 0.0
H366 H 0.62639 0.44680 0.54087 0.0
H367 H 0.81197 0.47325 0.65003 0.0
H368 H 0.85268 0.45698 0.67464 0.0
H369 H 0.82947 0.36487 0.66588 0.0
H370 H 0.78877 0.38114 0.64126 0.0
C371 C 0.60305 0.44469 0.44418 0.0
C372 C 0.58504 0.42507 0.43194 0.0
C373 C 0.55463 0.42833 0.43285 0.0
C374 C 0.54223 0.45119 0.44602 0.0
C375 C 0.56023 0.47080 0.45827 0.0
C376 C 0.59065 0.46755 0.45734 0.0
C377 C 0.59745 0.40216 0.41882 0.0
C378 C 0.60983 0.37921 0.40571 0.0
C379 C 0.62220 0.35623 0.39264 0.0
C380 C 0.63456 0.33321 0.37959 0.0
C381 C 0.64691 0.31017 0.36655 0.0
C382 C 0.62884 0.29024 0.35465 0.0
C383 C 0.64118 0.26712 0.34168 0.0
C384 C 0.67159 0.26393 0.34062 0.0
C385 C 0.68965 0.28389 0.35251 0.0
C386 C 0.67731 0.30700 0.36548 0.0
H387 H 0.62557 0.44230 0.44349 0.0
H388 H 0.54130 0.41381 0.42378 0.0
H389 H 0.51971 0.45360 0.44669 0.0
H390 H 0.60398 0.48208 0.46640 0.0
H391 H 0.60633 0.29258 0.35544 0.0
H392 H 0.62781 0.25235 0.33288 0.0
H393 H 0.71216 0.28154 0.35171 0.0
H394 H 0.69068 0.32177 0.37428 0.0
C395 C 0.39731 0.56660 0.57157 0.0
C396 C 0.38757 0.59706 0.56988 0.0
C397 C 0.40089 0.61733 0.55503 0.0
C398 C 0.42399 0.60715 0.54188 0.0
C399 C 0.43375 0.57671 0.54358 0.0
C400 C 0.42041 0.55643 0.55842 0.0
C401 C 0.36453 0.60725 0.58308 0.0
C402 C 0.34151 0.61747 0.59629 0.0
C403 C 0.31853 0.62773 0.60952 0.0
C404 C 0.29558 0.63801 0.62277 0.0
C405 C 0.27266 0.64830 0.63604 0.0
C406 C 0.26330 0.67890 0.63461 0.0
C407 C 0.24045 0.68922 0.64795 0.0
C408 C 0.22695 0.66896 0.66270 0.0
C409 C 0.23629 0.63835 0.66411 0.0
C410 C 0.25914 0.62803 0.65078 0.0
H411 H 0.38743 0.55159 0.58255 0.0
H412 H 0.39367 0.63986 0.55378 0.0
H413 H 0.43385 0.62216 0.53089 0.0
H414 H 0.42762 0.53389 0.55966 0.0
H415 H 0.27330 0.69390 0.62370 0.0
H416 H 0.23354 0.71188 0.64690 0.0
H417 H 0.22629 0.62335 0.67502 0.0
H418 H 0.26606 0.60537 0.65183 0.0
C419 C 0.56969 0.68313 0.46156 0.0
C420 C 0.59116 0.67654 0.44587 0.0
C421 C 0.60220 0.64667 0.44408 0.0
C422 C 0.59180 0.62340 0.45800 0.0
C423 C 0.57035 0.62999 0.47370 0.0
C424 C 0.55929 0.65986 0.47548 0.0
C425 C 0.60161 0.69984 0.43200 0.0
C426 C 0.61211 0.72313 0.41814 0.0
C427 C 0.62265 0.74641 0.40429 0.0
C428 C 0.63324 0.76969 0.39047 0.0
C429 C 0.64385 0.79298 0.37667 0.0
C430 C 0.66568 0.78643 0.36127 0.0
C431 C 0.67638 0.80974 0.34753 0.0
C432 C 0.66524 0.83958 0.34917 0.0
C433 C 0.64339 0.84612 0.36456 0.0
C434 C 0.63269 0.82282 0.37831 0.0
H435 H 0.56150 0.70524 0.46288 0.0
H436 H 0.61807 0.64180 0.43245 0.0
H437 H 0.59998 0.60129 0.45667 0.0
H438 H 0.54341 0.66473 0.48710 0.0
H439 H 0.67394 0.76434 0.36005 0.0
H440 H 0.69255 0.80489 0.33613 0.0
H441 H 0.63513 0.86821 0.36577 0.0
H442 H 0.61652 0.82766 0.38970 0.0
C443 C 0.47859 0.38070 0.46313 0.0
C444 C 0.46348 0.38917 0.44324 0.0
C445 C 0.45945 0.42013 0.43757 0.0
C446 C 0.47048 0.44262 0.45180 0.0
C447 C 0.48557 0.43416 0.47169 0.0
C448 C 0.48963 0.40319 0.47735 0.0
C449 C 0.45237 0.36668 0.42904 0.0
C450 C 0.44122 0.34420 0.41485 0.0
C451 C 0.43002 0.32174 0.40067 0.0
C452 C 0.41878 0.29929 0.38649 0.0
C453 C 0.40751 0.27684 0.37233 0.0
C454 C 0.39197 0.28538 0.35266 0.0
C455 C 0.38059 0.26295 0.33854 0.0
C456 C 0.38477 0.23197 0.34409 0.0
C457 C 0.40033 0.22343 0.36375 0.0
C458 C 0.41170 0.24586 0.37787 0.0
H459 H 0.48160 0.35778 0.46732 0.0
H460 H 0.44827 0.42640 0.42284 0.0
H461 H 0.46749 0.46554 0.44760 0.0
H462 H 0.50081 0.39693 0.49207 0.0
H463 H 0.38886 0.30832 0.34855 0.0
H464 H 0.36907 0.26927 0.32398 0.0
H465 H 0.40344 0.20049 0.36785 0.0
H466 H 0.42322 0.23954 0.39244 0.0
C467 C 0.44247 0.50080 0.59795 0.0
C468 C 0.42071 0.48274 0.58829 0.0
C469 C 0.42134 0.47598 0.56537 0.0
C470 C 0.44371 0.48731 0.55211 0.0
C471 C 0.46547 0.50539 0.56177 0.0
C472 C 0.46485 0.51213 0.58469 0.0
C473 C 0.39828 0.47148 0.60153 0.0
C474 C 0.37583 0.46024 0.61476 0.0
C475 C 0.35334 0.44904 0.62797 0.0
C476 C 0.33082 0.43787 0.64117 0.0
C477 C 0.30828 0.42673 0.65435 0.0
C478 C 0.28626 0.40912 0.64456 0.0
C479 C 0.26366 0.39808 0.65772 0.0
C480 C 0.26308 0.40463 0.68067 0.0
C481 C 0.28512 0.42221 0.69046 0.0
C482 C 0.30772 0.43326 0.67730 0.0
H483 H 0.44202 0.50579 0.61492 0.0
H484 H 0.40523 0.46260 0.55823 0.0
H485 H 0.44417 0.48231 0.53515 0.0
H486 H 0.48097 0.52550 0.59184 0.0
H487 H 0.28668 0.40429 0.62756 0.0
H488 H 0.24735 0.38507 0.65047 0.0
H489 H 0.28470 0.42704 0.70745 0.0
H490 H 0.32403 0.44628 0.68455 0.0
C491 C 0.48470 0.64527 0.44974 0.0
C492 C 0.47096 0.63672 0.42959 0.0
C493 C 0.47113 0.60601 0.42327 0.0
C494 C 0.48507 0.58385 0.43709 0.0
C495 C 0.49883 0.59240 0.45723 0.0
C496 C 0.49864 0.62311 0.46356 0.0
C497 C 0.45709 0.65889 0.41573 0.0
C498 C 0.44324 0.68106 0.40186 0.0
C499 C 0.42943 0.70321 0.38795 0.0
C500 C 0.41566 0.72536 0.37402 0.0
C501 C 0.40192 0.74752 0.36008 0.0
C502 C 0.38863 0.73898 0.33975 0.0
C503 C 0.37499 0.76114 0.32576 0.0
C504 C 0.37461 0.79184 0.33211 0.0
C505 C 0.38787 0.80037 0.35245 0.0
C506 C 0.40152 0.77821 0.36644 0.0
H507 H 0.48456 0.66800 0.45442 0.0
H508 H 0.46094 0.59968 0.40835 0.0
H509 H 0.48520 0.56112 0.43241 0.0
H510 H 0.50882 0.62943 0.47848 0.0
H511 H 0.38892 0.71625 0.33505 0.0
H512 H 0.36517 0.75482 0.31070 0.0
H513 H 0.38757 0.82309 0.35716 0.0
H514 H 0.41134 0.78452 0.38150 0.0
C515 C 0.62192 0.56895 0.59867 0.0
C516 C 0.64090 0.58933 0.58837 0.0
C517 C 0.63719 0.59668 0.56551 0.0
C518 C 0.61452 0.58361 0.55294 0.0
C519 C 0.59555 0.56322 0.56323 0.0
C520 C 0.59924 0.55589 0.58610 0.0
C521 C 0.66362 0.60233 0.60093 0.0
C522 C 0.68638 0.61530 0.61347 0.0
C523 C 0.70917 0.62825 0.62599 0.0
C524 C 0.73199 0.64116 0.63849 0.0
C525 C 0.75483 0.65406 0.65098 0.0
C526 C 0.77409 0.67401 0.64054 0.0
C527 C 0.79700 0.68681 0.65300 0.0
C528 C 0.80064 0.67967 0.67591 0.0
C529 C 0.78136 0.65974 0.68635 0.0
C530 C 0.75846 0.64693 0.67388 0.0
H531 H 0.62465 0.56353 0.61561 0.0
H532 H 0.65123 0.61178 0.55789 0.0
H533 H 0.61177 0.58905 0.53601 0.0
H534 H 0.58519 0.54080 0.59373 0.0
H535 H 0.77140 0.67929 0.62358 0.0
H536 H 0.81127 0.70157 0.64528 0.0
H537 H 0.78405 0.65447 0.70330 0.0
H538 H 0.74418 0.63217 0.68161 0.0
C539 C 0.93444 0.03583 0.07407 0.0
C540 C 0.96177 0.03242 0.08492 0.0
C541 C 0.96452 0.03710 0.10809 0.0
C542 C 0.93995 0.04519 0.12042 0.0
C543 C 0.91263 0.04860 0.10957 0.0
C544 C 0.90988 0.04392 0.08640 0.0
C545 C 0.93169 0.03115 0.05090 0.0
C546 C 0.90437 0.03456 0.04005 0.0
C547 C 0.87979 0.04265 0.05238 0.0
C548 C 0.88255 0.04733 0.07555 0.0
H549 H 0.94988 0.02516 0.04178 0.0
H550 H 0.90233 0.03110 0.02290 0.0
H551 H 0.85957 0.04518 0.04435 0.0
H552 H 0.86436 0.05332 0.08468 0.0
H553 H 0.98475 0.03458 0.11612 0.0
H554 H 0.94199 0.04865 0.13758 0.0
C555 C 0.06965 0.10678 0.91954 0.0
C556 C 0.04188 0.09999 0.92744 0.0
C557 C 0.01886 0.12120 0.92446 0.0
C558 C 0.02361 0.14920 0.91359 0.0
C559 C 0.05137 0.15599 0.90570 0.0
C560 C 0.07439 0.13478 0.90868 0.0
C561 C 0.09267 0.08557 0.92252 0.0
C562 C 0.12043 0.09236 0.91463 0.0
C563 C 0.12518 0.12036 0.90376 0.0
C564 C 0.10216 0.14157 0.90078 0.0
H565 H 0.08915 0.06484 0.93057 0.0
H566 H 0.13747 0.07666 0.91684 0.0
H567 H 0.14573 0.12539 0.89792 0.0
H568 H 0.10567 0.16230 0.89274 0.0
H569 H 0.99831 0.11617 0.93030 0.0
H570 H 0.00657 0.16490 0.91138 0.0
C571 C 0.08419 0.01326 0.10715 0.0
C572 C 0.08618 0.02437 0.08507 0.0
C573 C 0.11356 0.02722 0.07531 0.0
C574 C 0.13894 0.01897 0.08762 0.0
C575 C 0.13695 0.00786 0.10969 0.0
C576 C 0.10957 0.00501 0.11946 0.0
C577 C 0.05681 0.01041 0.11691 0.0
C578 C 0.05482 0.99990 0.13899 0.0
C579 C 0.08020 0.99104 0.15130 0.0
C580 C 0.10758 0.99390 0.14154 0.0
H581 H 0.03802 0.01652 0.10780 0.0
H582 H 0.03455 0.99719 0.14622 0.0
H583 H 0.07872 0.98282 0.16764 0.0
H584 H 0.12637 0.98778 0.15065 0.0
H585 H 0.11503 0.03545 0.05896 0.0
H586 H 0.15921 0.02108 0.08039 0.0
C587 C 0.98276 0.96510 0.91434 0.0
C588 C 0.00907 0.96931 0.92624 0.0
C589 C 0.03174 0.94760 0.92488 0.0
C590 C 0.02809 0.92169 0.91163 0.0
C591 C 0.00177 0.91747 0.89973 0.0
C592 C 0.97911 0.93918 0.90108 0.0
C593 C 0.96009 0.98680 0.91569 0.0
C594 C 0.93378 0.98259 0.90379 0.0
C595 C 0.93013 0.95667 0.89054 0.0
C596 C 0.95279 0.93496 0.88918 0.0
H597 H 0.96279 0.00599 0.92550 0.0
H598 H 0.91700 0.99866 0.90480 0.0
H599 H 0.91065 0.95355 0.88173 0.0
H600 H 0.95009 0.91578 0.87937 0.0
H601 H 0.05122 0.95073 0.93369 0.0
H602 H 0.04486 0.90562 0.91063 0.0
