data_{}
_symmetry_space_group_name_H-M    P1
_symmetry_Int_Tables_number       1
_symmetry_cell_setting            triclinic
loop_
_symmetry_equiv_pos_as_xyz
'x, y, z'
_cell_length_a     79.365
_cell_length_b     79.491
_cell_length_c     32.945
_cell_angle_alpha  89.860
_cell_angle_beta   90.401
_cell_angle_gamma  75.576
loop_
_atom_site_label
_atom_site_type_symbol
_atom_site_fract_x
_atom_site_fract_y
_atom_site_fract_z
_atom_type_partial_charge
Mg0 Mg 0.00728 0.51066 0.00120 0.0
C1 C 0.99025 0.49535 0.07597 0.0
C2 C 0.02430 0.52597 0.92642 0.0
O3 O 0.02489 0.51356 0.04636 0.0
O4 O 0.01231 0.52380 0.10477 0.0
O5 O 0.99454 0.49717 0.04041 0.0
O6 O 0.99521 0.50242 0.10697 0.0
O7 O 0.98966 0.50776 0.95603 0.0
O8 O 0.00225 0.49751 0.89762 0.0
O9 O 0.02001 0.52414 0.96198 0.0
C10 C 0.02349 0.52336 0.07578 0.0
C11 C 0.99107 0.49795 0.92661 0.0
O12 O 0.01934 0.51890 0.89542 0.0
Mg13 Mg 0.51045 0.00634 0.00126 0.0
C14 C 0.51648 0.02975 0.07612 0.0
C15 C 0.50442 0.98293 0.92639 0.0
O16 O 0.49817 0.99520 0.04604 0.0
O17 O 0.51273 0.99078 0.10499 0.0
O18 O 0.51400 0.02590 0.04050 0.0
O19 O 0.51596 0.02032 0.10716 0.0
O20 O 0.52273 0.01748 0.95647 0.0
O21 O 0.50817 0.02190 0.89753 0.0
O22 O 0.50690 0.98678 0.96201 0.0
C23 C 0.50386 0.98599 0.07571 0.0
C24 C 0.51704 0.02669 0.92680 0.0
O25 O 0.50494 0.99236 0.89536 0.0
Cu26 Cu 0.50784 0.50701 0.50118 0.0
H27 H 0.45107 0.49692 0.54754 0.0
H28 H 0.48069 0.49342 0.54662 0.0
H29 H 0.47643 0.52421 0.45121 0.0
H30 H 0.44692 0.52828 0.45012 0.0
H31 H 0.50873 0.44670 0.45505 0.0
H32 H 0.49999 0.47652 0.45589 0.0
H33 H 0.52985 0.47797 0.55119 0.0
H34 H 0.53910 0.44838 0.55236 0.0
H35 H 0.53912 0.48956 0.45375 0.0
H36 H 0.56847 0.48630 0.45119 0.0
H37 H 0.56429 0.51835 0.54718 0.0
H38 H 0.53484 0.52060 0.54727 0.0
H39 H 0.48576 0.53605 0.54858 0.0
H40 H 0.47730 0.56563 0.55105 0.0
H41 H 0.50806 0.56705 0.45496 0.0
H42 H 0.51558 0.53719 0.45495 0.0
C43 C 0.44523 0.51339 0.49884 0.0
C44 C 0.45604 0.50277 0.52746 0.0
C45 C 0.47373 0.50072 0.52674 0.0
C46 C 0.47120 0.51859 0.47125 0.0
C47 C 0.45357 0.52108 0.47056 0.0
C48 C 0.52535 0.44382 0.50370 0.0
C49 C 0.51334 0.45293 0.47508 0.0
C50 C 0.50816 0.47074 0.47576 0.0
C51 C 0.52550 0.47152 0.53119 0.0
C52 C 0.53108 0.45385 0.53193 0.0
C53 C 0.54437 0.49559 0.47296 0.0
C54 C 0.56194 0.49353 0.47146 0.0
C55 C 0.57038 0.50187 0.49932 0.0
C56 C 0.55942 0.51217 0.52740 0.0
C57 C 0.54187 0.51366 0.52730 0.0
C58 C 0.49043 0.54253 0.52933 0.0
C59 C 0.48527 0.56021 0.53078 0.0
C60 C 0.49151 0.57037 0.50285 0.0
C61 C 0.50316 0.56095 0.47477 0.0
C62 C 0.50780 0.54318 0.47492 0.0
N63 N 0.48162 0.50848 0.49939 0.0
N64 N 0.51404 0.48032 0.50305 0.0
N65 N 0.53433 0.50545 0.49962 0.0
N66 N 0.50151 0.53397 0.50266 0.0
Cl67 Cl 0.50778 0.50706 0.58287 0.0
Cl68 Cl 0.50778 0.50681 0.41949 0.0
C69 C 0.08307 0.58608 0.22954 0.0
C70 C 0.09057 0.56967 0.25523 0.0
C71 C 0.10232 0.57065 0.29208 0.0
C72 C 0.10997 0.55434 0.31800 0.0
C73 C 0.12176 0.55544 0.35475 0.0
C74 C 0.12587 0.57283 0.36543 0.0
C75 C 0.11817 0.58914 0.33961 0.0
C76 C 0.10641 0.58804 0.30291 0.0
C77 C 0.14141 0.55776 0.42706 0.0
C78 C 0.15077 0.56295 0.46408 0.0
C79 C 0.17047 0.56130 0.46268 0.0
C80 C 0.17912 0.56962 0.49645 0.0
C81 C 0.16857 0.57763 0.53380 0.0
C82 C 0.14920 0.57776 0.53684 0.0
C83 C 0.14029 0.57043 0.50188 0.0
C84 C 0.12059 0.57186 0.50330 0.0
C85 C 0.18115 0.55267 0.42599 0.0
C86 C 0.17730 0.58606 0.56731 0.0
C87 C 0.19824 0.57017 0.49278 0.0
C88 C 0.21618 0.59097 0.48262 0.0
C89 C 0.23163 0.57514 0.48972 0.0
C90 C 0.25025 0.57757 0.49206 0.0
C91 C 0.25339 0.59583 0.48730 0.0
C92 C 0.23793 0.61164 0.47986 0.0
C93 C 0.21930 0.60921 0.47752 0.0
C94 C 0.27202 0.59821 0.49006 0.0
C95 C 0.28739 0.58234 0.49769 0.0
C96 C 0.13844 0.58608 0.57355 0.0
C97 C 0.12980 0.57862 0.64124 0.0
C98 C 0.11932 0.59768 0.64372 0.0
C99 C 0.10558 0.60329 0.67702 0.0
C100 C 0.10233 0.58980 0.70765 0.0
C101 C 0.11285 0.57075 0.70517 0.0
C102 C 0.12660 0.56515 0.67194 0.0
C103 C 0.08849 0.59529 0.74074 0.0
C104 C 0.08525 0.58166 0.77097 0.0
O105 O 0.13721 0.57409 0.40157 0.0
O106 O 0.14262 0.57293 0.60749 0.0
O107 O 0.19791 0.58866 0.48167 0.0
H108 H 0.08622 0.59888 0.23791 0.0
H109 H 0.08745 0.55686 0.24696 0.0
H110 H 0.10693 0.54146 0.30999 0.0
H111 H 0.12742 0.54340 0.37403 0.0
H112 H 0.12119 0.60202 0.34770 0.0
H113 H 0.10073 0.60009 0.28373 0.0
H114 H 0.15027 0.54656 0.40998 0.0
H115 H 0.12897 0.55423 0.43685 0.0
H116 H 0.11464 0.58067 0.52944 0.0
H117 H 0.11822 0.55842 0.50798 0.0
H118 H 0.11435 0.57760 0.47344 0.0
H119 H 0.17209 0.55270 0.39897 0.0
H120 H 0.18804 0.53869 0.43420 0.0
H121 H 0.19126 0.56005 0.41774 0.0
H122 H 0.16726 0.59206 0.59113 0.0
H123 H 0.18287 0.59661 0.55320 0.0
H124 H 0.18827 0.57580 0.58214 0.0
H125 H 0.20519 0.56659 0.52316 0.0
H126 H 0.20499 0.56092 0.46812 0.0
H127 H 0.22927 0.56165 0.49342 0.0
H128 H 0.26172 0.56588 0.49741 0.0
H129 H 0.24026 0.62514 0.47618 0.0
H130 H 0.20782 0.62090 0.47219 0.0
H131 H 0.27442 0.61169 0.48653 0.0
H132 H 0.28495 0.56888 0.50120 0.0
H133 H 0.14190 0.59862 0.58289 0.0
H134 H 0.12400 0.58885 0.56555 0.0
H135 H 0.12166 0.60759 0.62078 0.0
H136 H 0.09777 0.61739 0.67891 0.0
H137 H 0.11040 0.56079 0.72789 0.0
H138 H 0.13432 0.55103 0.66988 0.0
H139 H 0.08066 0.60938 0.74283 0.0
H140 H 0.09310 0.56758 0.76876 0.0
C141 C 0.58482 0.08275 0.23549 0.0
C142 C 0.60122 0.08219 0.26128 0.0
C143 C 0.60011 0.09434 0.29801 0.0
C144 C 0.61641 0.09396 0.32403 0.0
C145 C 0.61518 0.10621 0.36066 0.0
C146 C 0.59767 0.11881 0.37111 0.0
C147 C 0.58138 0.11913 0.34519 0.0
C148 C 0.58261 0.10691 0.30861 0.0
C149 C 0.61263 0.12685 0.43276 0.0
C150 C 0.60732 0.13868 0.46964 0.0
C151 C 0.60877 0.15759 0.46807 0.0
C152 C 0.60033 0.17023 0.50167 0.0
C153 C 0.59239 0.16351 0.53904 0.0
C154 C 0.59247 0.14417 0.54226 0.0
C155 C 0.59993 0.13175 0.50746 0.0
C156 C 0.59871 0.11272 0.50905 0.0
C157 C 0.61732 0.16415 0.43137 0.0
C158 C 0.58383 0.17629 0.57237 0.0
C159 C 0.59957 0.18965 0.49782 0.0
C160 C 0.57848 0.21780 0.48727 0.0
C161 C 0.59421 0.22551 0.49439 0.0
C162 C 0.59157 0.24534 0.49653 0.0
C163 C 0.57321 0.25741 0.49155 0.0
C164 C 0.55749 0.24968 0.48408 0.0
C165 C 0.56014 0.22985 0.48195 0.0
C166 C 0.57061 0.27722 0.49411 0.0
C167 C 0.58638 0.28484 0.50177 0.0
C168 C 0.58423 0.13738 0.57897 0.0
C169 C 0.59182 0.12492 0.64682 0.0
C170 C 0.57279 0.12375 0.64920 0.0
C171 C 0.56730 0.11266 0.68257 0.0
C172 C 0.58089 0.10273 0.71337 0.0
C173 C 0.59990 0.10396 0.71100 0.0
C174 C 0.60538 0.11507 0.67770 0.0
C175 C 0.57552 0.09149 0.74654 0.0
C176 C 0.58924 0.08151 0.77694 0.0
O177 O 0.59629 0.13069 0.40713 0.0
O178 O 0.59739 0.13506 0.61302 0.0
O179 O 0.58100 0.19839 0.48651 0.0
H180 H 0.57194 0.09214 0.24369 0.0
H181 H 0.61412 0.07282 0.25317 0.0
H182 H 0.62937 0.08465 0.31619 0.0
H183 H 0.62721 0.10595 0.38001 0.0
H184 H 0.56841 0.12843 0.35312 0.0
H185 H 0.57056 0.10716 0.28936 0.0
H186 H 0.62379 0.13028 0.41571 0.0
H187 H 0.61631 0.11265 0.44270 0.0
H188 H 0.58992 0.11102 0.53515 0.0
H189 H 0.61223 0.10377 0.51389 0.0
H190 H 0.59300 0.10936 0.47918 0.0
H191 H 0.61739 0.15515 0.40444 0.0
H192 H 0.63129 0.16419 0.43967 0.0
H193 H 0.60980 0.17790 0.42295 0.0
H194 H 0.57792 0.16911 0.59622 0.0
H195 H 0.57318 0.18705 0.55810 0.0
H196 H 0.59402 0.18221 0.58721 0.0
H197 H 0.60309 0.19479 0.52817 0.0
H198 H 0.60878 0.19195 0.47320 0.0
H199 H 0.60779 0.21655 0.49825 0.0
H200 H 0.60319 0.25109 0.50190 0.0
H201 H 0.54391 0.25863 0.48024 0.0
H202 H 0.54851 0.22409 0.47660 0.0
H203 H 0.55705 0.28623 0.49041 0.0
H204 H 0.59993 0.27580 0.50544 0.0
H205 H 0.57161 0.14695 0.58815 0.0
H206 H 0.58160 0.12430 0.57108 0.0
H207 H 0.56281 0.13099 0.62613 0.0
H208 H 0.55322 0.11173 0.68438 0.0
H209 H 0.60993 0.09659 0.73384 0.0
H210 H 0.61947 0.11590 0.67571 0.0
H211 H 0.56146 0.09053 0.74855 0.0
H212 H 0.60330 0.08250 0.77481 0.0
C213 C 0.93203 0.43604 0.77286 0.0
C214 C 0.93272 0.41964 0.74751 0.0
C215 C 0.92048 0.42061 0.71064 0.0
C216 C 0.92097 0.40430 0.68504 0.0
C217 C 0.90864 0.40540 0.64826 0.0
C218 C 0.89585 0.42279 0.63724 0.0
C219 C 0.89540 0.43910 0.66273 0.0
C220 C 0.90771 0.43800 0.69945 0.0
C221 C 0.88783 0.40773 0.57591 0.0
C222 C 0.87588 0.41291 0.53878 0.0
C223 C 0.85700 0.41126 0.54021 0.0
C224 C 0.84421 0.41958 0.50628 0.0
C225 C 0.85075 0.42759 0.46876 0.0
C226 C 0.87006 0.42772 0.46572 0.0
C227 C 0.88263 0.42039 0.50083 0.0
C228 C 0.90162 0.42182 0.49938 0.0
C229 C 0.85063 0.40263 0.57708 0.0
C230 C 0.83782 0.43602 0.43508 0.0
C231 C 0.82481 0.42013 0.50993 0.0
C232 C 0.79649 0.44093 0.51967 0.0
C233 C 0.78894 0.42510 0.51289 0.0
C234 C 0.76910 0.42753 0.51049 0.0
C235 C 0.75686 0.44578 0.51489 0.0
C236 C 0.76443 0.46160 0.52201 0.0
C237 C 0.78426 0.45917 0.52440 0.0
C238 C 0.73704 0.44817 0.51207 0.0
C239 C 0.72958 0.43230 0.50476 0.0
C240 C 0.87667 0.43604 0.42885 0.0
C241 C 0.88904 0.42858 0.36131 0.0
C242 C 0.89000 0.44764 0.35844 0.0
C243 C 0.90094 0.45325 0.32504 0.0
C244 C 0.91093 0.43976 0.29468 0.0
C245 C 0.90992 0.42071 0.29754 0.0
C246 C 0.89896 0.41511 0.33088 0.0
C247 C 0.92202 0.44525 0.26148 0.0
C248 C 0.93207 0.43162 0.23152 0.0
O249 O 0.88388 0.42405 0.60107 0.0
O250 O 0.87905 0.42289 0.39517 0.0
O251 O 0.81590 0.43862 0.52067 0.0
H252 H 0.92249 0.44884 0.76423 0.0
H253 H 0.94223 0.40682 0.75603 0.0
H254 H 0.93044 0.39142 0.69331 0.0
H255 H 0.90899 0.39336 0.62923 0.0
H256 H 0.88596 0.45198 0.65438 0.0
H257 H 0.90738 0.45005 0.71839 0.0
H258 H 0.88456 0.39652 0.59322 0.0
H259 H 0.90203 0.40419 0.56619 0.0
H260 H 0.90316 0.43063 0.47307 0.0
H261 H 0.91069 0.40838 0.49498 0.0
H262 H 0.90499 0.42756 0.52913 0.0
H263 H 0.85968 0.40266 0.60409 0.0
H264 H 0.85072 0.38865 0.56915 0.0
H265 H 0.83683 0.41001 0.58517 0.0
H266 H 0.84487 0.44202 0.41114 0.0
H267 H 0.82699 0.44657 0.44898 0.0
H268 H 0.83197 0.42576 0.42046 0.0
H269 H 0.81964 0.41655 0.47962 0.0
H270 H 0.82267 0.41088 0.53477 0.0
H271 H 0.79803 0.41161 0.50946 0.0
H272 H 0.76347 0.41584 0.50538 0.0
H273 H 0.75535 0.47510 0.52541 0.0
H274 H 0.78991 0.47086 0.52950 0.0
H275 H 0.72790 0.46165 0.51534 0.0
H276 H 0.73874 0.41884 0.50152 0.0
H277 H 0.86696 0.44858 0.41925 0.0
H278 H 0.88972 0.43881 0.43679 0.0
H279 H 0.88271 0.45756 0.38119 0.0
H280 H 0.90171 0.46736 0.32286 0.0
H281 H 0.91733 0.41075 0.27502 0.0
H282 H 0.89828 0.40099 0.33323 0.0
H283 H 0.92282 0.45934 0.25910 0.0
H284 H 0.93124 0.41754 0.23401 0.0
C285 C 0.43442 0.93080 0.76701 0.0
C286 C 0.45082 0.92321 0.74182 0.0
C287 C 0.44971 0.91161 0.70505 0.0
C288 C 0.46601 0.90387 0.67962 0.0
C289 C 0.46478 0.89224 0.64295 0.0
C290 C 0.44727 0.88836 0.63185 0.0
C291 C 0.43097 0.89613 0.65718 0.0
C292 C 0.43221 0.90775 0.69380 0.0
C293 C 0.46223 0.87287 0.57075 0.0
C294 C 0.45692 0.86368 0.53368 0.0
C295 C 0.45837 0.84405 0.53530 0.0
C296 C 0.44992 0.83561 0.50139 0.0
C297 C 0.44199 0.84628 0.46373 0.0
C298 C 0.44207 0.86558 0.46052 0.0
C299 C 0.44952 0.87430 0.49559 0.0
C300 C 0.44831 0.89392 0.49396 0.0
C301 C 0.46692 0.83324 0.57231 0.0
C302 C 0.43343 0.83776 0.43008 0.0
C303 C 0.44916 0.81657 0.50521 0.0
C304 C 0.42808 0.79891 0.51499 0.0
C305 C 0.44381 0.78337 0.50844 0.0
C306 C 0.44117 0.76486 0.50620 0.0
C307 C 0.42280 0.76192 0.51051 0.0
C308 C 0.40709 0.77747 0.51740 0.0
C309 C 0.40973 0.79598 0.51964 0.0
C310 C 0.42021 0.74341 0.50785 0.0
C311 C 0.43598 0.72794 0.50077 0.0
C312 C 0.43383 0.87647 0.42350 0.0
C313 C 0.44142 0.88516 0.35593 0.0
C314 C 0.42238 0.89580 0.35285 0.0
C315 C 0.41690 0.90962 0.31929 0.0
C316 C 0.43048 0.91278 0.28898 0.0
C317 C 0.44950 0.90210 0.29205 0.0
C318 C 0.45498 0.88827 0.32555 0.0
C319 C 0.42512 0.92669 0.25562 0.0
C320 C 0.43884 0.92985 0.22572 0.0
O321 O 0.44589 0.87716 0.59578 0.0
O322 O 0.44699 0.87224 0.38993 0.0
O323 O 0.43059 0.81707 0.51584 0.0
H324 H 0.42154 0.92782 0.75833 0.0
H325 H 0.46372 0.92616 0.75040 0.0
H326 H 0.47897 0.90674 0.68794 0.0
H327 H 0.47681 0.88652 0.62404 0.0
H328 H 0.41801 0.89329 0.64878 0.0
H329 H 0.42016 0.91349 0.71262 0.0
H330 H 0.47338 0.86389 0.58821 0.0
H331 H 0.46591 0.88524 0.56095 0.0
H332 H 0.43952 0.90000 0.46754 0.0
H333 H 0.46183 0.89615 0.48961 0.0
H334 H 0.44260 0.90013 0.52361 0.0
H335 H 0.46699 0.84220 0.59924 0.0
H336 H 0.48088 0.82625 0.56453 0.0
H337 H 0.45940 0.82323 0.58045 0.0
H338 H 0.42752 0.84789 0.40601 0.0
H339 H 0.42278 0.83230 0.44396 0.0
H340 H 0.44362 0.82677 0.41562 0.0
H341 H 0.45268 0.80968 0.47498 0.0
H342 H 0.45837 0.80969 0.53017 0.0
H343 H 0.45738 0.78558 0.50508 0.0
H344 H 0.45279 0.75333 0.50126 0.0
H345 H 0.39351 0.77528 0.52075 0.0
H346 H 0.39811 0.80753 0.52456 0.0
H347 H 0.40664 0.74115 0.51106 0.0
H348 H 0.44952 0.73024 0.49759 0.0
H349 H 0.42120 0.87319 0.41386 0.0
H350 H 0.43120 0.89086 0.43129 0.0
H351 H 0.41240 0.89352 0.37556 0.0
H352 H 0.40282 0.91755 0.31696 0.0
H353 H 0.45953 0.90448 0.26957 0.0
H354 H 0.46907 0.88042 0.32805 0.0
H355 H 0.41105 0.93465 0.25310 0.0
H356 H 0.45289 0.92187 0.22837 0.0
C357 C 0.36011 0.54067 0.49816 0.0
C358 C 0.37211 0.54419 0.46448 0.0
C359 C 0.38443 0.54651 0.49930 0.0
C360 C 0.37229 0.54305 0.53298 0.0
C361 C 0.35304 0.56058 0.49970 0.0
C362 C 0.36535 0.56290 0.53454 0.0
C363 C 0.36519 0.56404 0.46603 0.0
C364 C 0.37736 0.56641 0.50087 0.0
C365 C 0.40404 0.53766 0.49883 0.0
C366 C 0.42365 0.52881 0.49832 0.0
C367 C 0.33341 0.56934 0.49973 0.0
C368 C 0.31378 0.57810 0.49971 0.0
H369 H 0.34880 0.53421 0.49734 0.0
H370 H 0.37982 0.53534 0.44028 0.0
H371 H 0.38012 0.53343 0.55600 0.0
H372 H 0.35764 0.57175 0.55872 0.0
H373 H 0.35736 0.57369 0.44307 0.0
H374 H 0.38868 0.57286 0.50178 0.0
C375 C 0.57169 0.36504 0.50265 0.0
C376 C 0.55863 0.37366 0.46952 0.0
C377 C 0.54715 0.38253 0.50485 0.0
C378 C 0.56028 0.37377 0.53797 0.0
C379 C 0.56114 0.35117 0.50465 0.0
C380 C 0.54967 0.36004 0.53999 0.0
C381 C 0.54801 0.35994 0.47153 0.0
C382 C 0.53661 0.36867 0.50688 0.0
C383 C 0.53845 0.40215 0.50477 0.0
C384 C 0.52975 0.42177 0.50463 0.0
C385 C 0.56993 0.33157 0.50430 0.0
C386 C 0.57872 0.31198 0.50389 0.0
H387 H 0.58617 0.35842 0.50120 0.0
H388 H 0.55931 0.38373 0.44529 0.0
H389 H 0.56208 0.38390 0.56093 0.0
H390 H 0.54899 0.34996 0.56421 0.0
H391 H 0.54617 0.34980 0.44865 0.0
H392 H 0.52213 0.37530 0.50842 0.0
C393 C 0.65183 0.45768 0.46273 0.0
C394 C 0.63913 0.45123 0.49012 0.0
C395 C 0.63162 0.47056 0.50049 0.0
C396 C 0.64447 0.47694 0.47311 0.0
C397 C 0.66310 0.45693 0.50137 0.0
C398 C 0.65561 0.47625 0.51172 0.0
C399 C 0.65025 0.45055 0.52876 0.0
C400 C 0.64289 0.46982 0.53911 0.0
C401 C 0.61191 0.47899 0.49988 0.0
C402 C 0.59221 0.48739 0.49926 0.0
C403 C 0.68277 0.44831 0.50186 0.0
C404 C 0.70243 0.43968 0.50234 0.0
H405 H 0.66030 0.45118 0.43656 0.0
H406 H 0.62805 0.44495 0.48255 0.0
H407 H 0.63709 0.48838 0.45384 0.0
H408 H 0.66668 0.48253 0.51931 0.0
H409 H 0.65764 0.43914 0.54811 0.0
H410 H 0.63441 0.47635 0.56524 0.0
C411 C 0.45408 0.65017 0.46682 0.0
C412 C 0.47394 0.64301 0.46785 0.0
C413 C 0.47068 0.63097 0.50212 0.0
C414 C 0.45076 0.63827 0.50109 0.0
C415 C 0.45695 0.66238 0.50109 0.0
C416 C 0.45367 0.65035 0.53535 0.0
C417 C 0.47687 0.65508 0.50213 0.0
C418 C 0.47354 0.64318 0.53639 0.0
C419 C 0.47931 0.61133 0.50255 0.0
C420 C 0.48796 0.59170 0.50294 0.0
C421 C 0.44841 0.68203 0.50024 0.0
C422 C 0.43989 0.70169 0.49935 0.0
H423 H 0.44501 0.65795 0.44270 0.0
H424 H 0.48328 0.63510 0.44479 0.0
H425 H 0.44411 0.62709 0.50098 0.0
H426 H 0.44434 0.65826 0.55842 0.0
H427 H 0.48350 0.66625 0.50236 0.0
H428 H 0.48257 0.63538 0.56054 0.0
C429 C 0.03680 0.53547 0.89727 0.0
H430 H 0.02601 0.53494 0.88248 0.0
H431 H 0.03435 0.54665 0.91191 0.0
C432 C 0.07180 0.54939 0.83514 0.0
C433 C 0.06872 0.53863 0.87076 0.0
C434 C 0.05040 0.53545 0.86721 0.0
C435 C 0.07493 0.57942 0.82216 0.0
C436 C 0.06338 0.56879 0.84298 0.0
H437 H 0.08733 0.57452 0.82916 0.0
H438 H 0.07152 0.59170 0.83104 0.0
H439 H 0.05144 0.57206 0.83164 0.0
H440 H 0.06277 0.57109 0.87253 0.0
H441 H 0.08445 0.54764 0.83099 0.0
H442 H 0.06673 0.54562 0.81028 0.0
H443 H 0.07756 0.52739 0.87113 0.0
H444 H 0.06975 0.54481 0.89639 0.0
H445 H 0.05240 0.52392 0.85419 0.0
H446 H 0.04449 0.54393 0.84639 0.0
C447 C 0.53068 0.04003 0.90112 0.0
H448 H 0.51965 0.04214 0.88529 0.0
H449 H 0.53083 0.05098 0.91511 0.0
C450 C 0.57152 0.04250 0.84210 0.0
C451 C 0.56491 0.03414 0.87771 0.0
C452 C 0.54523 0.03600 0.87246 0.0
C453 C 0.58286 0.06855 0.82845 0.0
C454 C 0.56778 0.06231 0.84844 0.0
H455 H 0.59425 0.06101 0.83683 0.0
H456 H 0.58241 0.08066 0.83656 0.0
H457 H 0.55652 0.06819 0.83582 0.0
H458 H 0.56725 0.06500 0.87780 0.0
H459 H 0.58419 0.03755 0.83927 0.0
H460 H 0.56574 0.04003 0.81690 0.0
H461 H 0.57107 0.02170 0.87934 0.0
H462 H 0.56715 0.03985 0.90320 0.0
H463 H 0.54449 0.02488 0.86004 0.0
H464 H 0.54171 0.04486 0.85079 0.0
C465 C 0.97380 0.48546 0.09313 0.0
H466 H 0.96966 0.48471 0.06485 0.0
H467 H 0.98324 0.47492 0.09836 0.0
C468 C 0.94668 0.47188 0.17739 0.0
C469 C 0.95843 0.48352 0.16714 0.0
C470 C 0.95937 0.48527 0.12070 0.0
C471 C 0.94940 0.44228 0.20641 0.0
C472 C 0.95678 0.45266 0.17389 0.0
H473 H 0.94861 0.44816 0.23302 0.0
H474 H 0.95701 0.43038 0.20935 0.0
H475 H 0.95528 0.44825 0.14644 0.0
H476 H 0.96934 0.45148 0.17882 0.0
H477 H 0.94229 0.47429 0.20535 0.0
H478 H 0.93658 0.47430 0.15858 0.0
H479 H 0.95385 0.49511 0.17930 0.0
H480 H 0.97023 0.47851 0.17839 0.0
H481 H 0.95057 0.49618 0.11434 0.0
H482 H 0.95448 0.47581 0.11013 0.0
C483 C 0.48921 0.97499 0.10391 0.0
H484 H 0.49955 0.97438 0.12151 0.0
H485 H 0.47983 0.98477 0.11367 0.0
C486 C 0.46134 0.94328 0.12921 0.0
C487 C 0.46728 0.95324 0.09547 0.0
C488 C 0.48362 0.95884 0.10938 0.0
C489 C 0.43652 0.94744 0.17740 0.0
C490 C 0.45058 0.95602 0.16016 0.0
H491 H 0.43053 0.94289 0.15511 0.0
H492 H 0.42776 0.95602 0.19298 0.0
H493 H 0.45817 0.95834 0.18224 0.0
H494 H 0.44497 0.96717 0.14666 0.0
H495 H 0.45419 0.93584 0.11778 0.0
H496 H 0.47160 0.93568 0.14290 0.0
H497 H 0.46995 0.94584 0.07110 0.0
H498 H 0.45788 0.96363 0.08842 0.0
H499 H 0.49339 0.94969 0.09858 0.0
H500 H 0.48397 0.95705 0.13916 0.0
C501 C 0.53449 0.04121 0.09426 0.0
H502 H 0.53633 0.04413 0.06557 0.0
H503 H 0.52693 0.05169 0.10670 0.0
C504 C 0.57098 0.04329 0.16972 0.0
C505 C 0.55663 0.03449 0.16038 0.0
C506 C 0.55143 0.03729 0.11528 0.0
C507 C 0.57490 0.06884 0.20915 0.0
C508 C 0.56321 0.06285 0.17702 0.0
H509 H 0.57717 0.06071 0.23249 0.0
H510 H 0.56917 0.08061 0.21913 0.0
H511 H 0.56297 0.06943 0.15144 0.0
H512 H 0.55116 0.06484 0.18712 0.0
H513 H 0.57748 0.03793 0.19416 0.0
H514 H 0.57917 0.04169 0.14674 0.0
H515 H 0.56067 0.02192 0.16629 0.0
H516 H 0.54643 0.03943 0.17764 0.0
H517 H 0.55821 0.02663 0.10188 0.0
H518 H 0.55676 0.04669 0.10645 0.0
C519 C 0.03570 0.53609 0.09845 0.0
H520 H 0.02368 0.54289 0.09216 0.0
H521 H 0.03584 0.53208 0.12692 0.0
C522 C 0.06873 0.56229 0.12609 0.0
C523 C 0.06658 0.54569 0.10720 0.0
C524 C 0.04735 0.54780 0.09537 0.0
C525 C 0.07527 0.57277 0.19437 0.0
C526 C 0.06353 0.56294 0.17121 0.0
H527 H 0.08760 0.56819 0.18680 0.0
H528 H 0.07419 0.57143 0.22409 0.0
H529 H 0.05113 0.56903 0.17423 0.0
H530 H 0.06530 0.55101 0.18218 0.0
H531 H 0.08098 0.56290 0.12376 0.0
H532 H 0.06133 0.57236 0.11143 0.0
H533 H 0.07394 0.54300 0.08281 0.0
H534 H 0.07029 0.53598 0.12682 0.0
H535 H 0.04681 0.55110 0.06631 0.0
H536 H 0.04112 0.55838 0.10994 0.0
C537 C 0.97560 0.48531 0.91265 0.0
H538 H 0.98017 0.47882 0.93782 0.0
H539 H 0.96288 0.48968 0.91578 0.0
C540 C 0.96822 0.45807 0.82131 0.0
C541 C 0.97269 0.47465 0.83397 0.0
C542 C 0.97887 0.47307 0.87855 0.0
C543 C 0.94167 0.44805 0.80365 0.0
C544 C 0.94975 0.45810 0.83573 0.0
H545 H 0.94335 0.45214 0.77594 0.0
H546 H 0.92904 0.44978 0.80841 0.0
H547 H 0.95030 0.45244 0.86260 0.0
H548 H 0.94259 0.47019 0.83805 0.0
H549 H 0.96880 0.45699 0.79141 0.0
H550 H 0.97676 0.44801 0.83326 0.0
H551 H 0.98199 0.47683 0.81641 0.0
H552 H 0.96230 0.48454 0.83094 0.0
H553 H 0.99171 0.46943 0.87672 0.0
H554 H 0.97529 0.46279 0.88888 0.0
C555 C 0.48419 0.97703 0.90131 0.0
H556 H 0.47677 0.98802 0.91216 0.0
H557 H 0.48664 0.97918 0.87263 0.0
C558 C 0.46072 0.94257 0.86765 0.0
C559 C 0.47750 0.94536 0.88460 0.0
C560 C 0.47418 0.96377 0.90244 0.0
C561 C 0.44777 0.93922 0.79979 0.0
C562 C 0.45729 0.95067 0.82483 0.0
H563 H 0.45379 0.92679 0.80284 0.0
H564 H 0.44746 0.94238 0.77062 0.0
H565 H 0.45004 0.96271 0.82651 0.0
H566 H 0.46843 0.95091 0.81179 0.0
H567 H 0.46145 0.92998 0.86628 0.0
H568 H 0.45101 0.94798 0.88579 0.0
H569 H 0.48207 0.93665 0.90602 0.0
H570 H 0.48626 0.94396 0.86274 0.0
H571 H 0.47241 0.96207 0.93173 0.0
H572 H 0.46261 0.96984 0.89147 0.0
