data_{}
_symmetry_space_group_name_H-M    P1
_symmetry_Int_Tables_number       1
_symmetry_cell_setting            triclinic
loop_
_symmetry_equiv_pos_as_xyz
'x, y, z'
_cell_length_a     69.095
_cell_length_b     46.319
_cell_length_c     89.497
_cell_angle_alpha  91.488
_cell_angle_beta   89.621
_cell_angle_gamma  73.447
loop_
_atom_site_label
_atom_site_type_symbol
_atom_site_fract_x
_atom_site_fract_y
_atom_site_fract_z
_atom_type_partial_charge
C0 C 0.01180 0.16636 0.66645 0.0
C1 C 0.00909 0.17128 0.65220 0.0
C2 C 0.00932 0.15060 0.64072 0.0
C3 C 0.01243 0.03103 0.64759 0.0
C4 C 0.01189 0.98733 0.66521 0.0
C5 C 0.01771 0.96326 0.65564 0.0
C6 C 0.01839 0.93505 0.65957 0.0
C7 C 0.01221 0.92854 0.67369 0.0
C8 C 0.00731 0.95237 0.68261 0.0
C9 C 0.00657 0.98168 0.67933 0.0
C10 C 0.01470 0.02347 0.62297 0.0
C11 C 0.01823 0.01351 0.59414 0.0
C12 C 0.02336 0.03809 0.58974 0.0
C13 C 0.02556 0.04399 0.57523 0.0
C14 C 0.02178 0.02588 0.56349 0.0
C15 C 0.01747 0.00206 0.56836 0.0
C16 C 0.01526 0.99456 0.58301 0.0
H17 H 0.01572 0.10366 0.62444 0.0
H18 H 0.01948 0.09431 0.66154 0.0
H19 H 0.01979 0.12962 0.67926 0.0
H20 H 0.00670 0.19143 0.64946 0.0
H21 H 0.00691 0.15675 0.63079 0.0
H22 H 0.01208 0.02814 0.66829 0.0
N23 N 0.01287 0.05952 0.64808 0.0
N24 N 0.01429 0.09750 0.63339 0.0
H25 H 0.02149 0.96626 0.64583 0.0
H26 H 0.00255 0.99732 0.68663 0.0
N27 N 0.01423 0.00922 0.63559 0.0
N28 N 0.01219 0.01627 0.66055 0.0
H29 H 0.02316 0.91908 0.65256 0.0
H30 H 0.00388 0.94907 0.69246 0.0
N31 N 0.01546 0.05338 0.61984 0.0
N32 N 0.01685 0.00802 0.60959 0.0
C33 C 0.01360 0.06836 0.63287 0.0
C34 C 0.01675 0.11445 0.65873 0.0
C35 C 0.01320 0.12096 0.64418 0.0
H36 H 0.01747 0.98919 0.61088 0.0
H37 H 0.02553 0.05164 0.59707 0.0
H38 H 0.02976 0.06094 0.57286 0.0
H39 H 0.01565 0.98837 0.56094 0.0
H40 H 0.01185 0.97684 0.58525 0.0
C41 C 0.01659 0.13564 0.66941 0.0
C42 C 0.01226 0.89861 0.34547 0.0
C43 C 0.00954 0.89600 0.35977 0.0
C44 C 0.00975 0.91650 0.37125 0.0
C45 C 0.01287 0.03341 0.36431 0.0
C46 C 0.01236 0.07756 0.34671 0.0
C47 C 0.01816 0.09668 0.35616 0.0
C48 C 0.01885 0.12432 0.35222 0.0
C49 C 0.01269 0.13608 0.33822 0.0
C50 C 0.00780 0.11641 0.32941 0.0
C51 C 0.00706 0.08773 0.33270 0.0
C52 C 0.01511 0.03905 0.38889 0.0
C53 C 0.01859 0.04603 0.41765 0.0
C54 C 0.02372 0.01709 0.42195 0.0
C55 C 0.02589 0.00933 0.43640 0.0
C56 C 0.02210 0.03066 0.44822 0.0
C57 C 0.01779 0.05815 0.44344 0.0
C58 C 0.01561 0.06752 0.42884 0.0
H59 H 0.01613 0.95799 0.38739 0.0
H60 H 0.01994 0.96412 0.35022 0.0
H61 H 0.02028 0.92854 0.33249 0.0
H62 H 0.00714 0.87789 0.36257 0.0
H63 H 0.00732 0.91240 0.38123 0.0
H64 H 0.01255 0.03659 0.34363 0.0
N65 N 0.01330 0.00455 0.36382 0.0
N66 N 0.01470 0.96537 0.37847 0.0
H67 H 0.02192 0.09048 0.36589 0.0
H68 H 0.00305 0.07551 0.32548 0.0
N69 N 0.01465 0.05370 0.37628 0.0
N70 N 0.01264 0.04837 0.35136 0.0
H71 H 0.02361 0.13623 0.35912 0.0
H72 H 0.00439 0.12262 0.31962 0.0
N73 N 0.01585 0.00851 0.39200 0.0
N74 N 0.01724 0.05268 0.40222 0.0
C75 C 0.01402 0.99509 0.37901 0.0
C76 C 0.01721 0.94631 0.35309 0.0
C77 C 0.01364 0.94283 0.36771 0.0
H78 H 0.01785 0.07099 0.40092 0.0
H79 H 0.02590 0.00169 0.41456 0.0
H80 H 0.03009 0.98880 0.43868 0.0
H81 H 0.01597 0.07339 0.45090 0.0
H82 H 0.01220 0.08814 0.42667 0.0
C83 C 0.01706 0.92525 0.34241 0.0
O84 O 0.07235 0.50602 0.79452 0.0
O85 O 0.07127 0.54120 0.77723 0.0
O86 O 0.00962 0.54487 0.77631 0.0
O87 O 0.97888 0.57419 0.77072 0.0
O88 O 0.02482 0.59060 0.73275 0.0
O89 O 0.04981 0.57942 0.74971 0.0
O90 O 0.03409 0.49807 0.75168 0.0
O91 O 0.04569 0.44952 0.75754 0.0
H92 H 0.04467 0.57256 0.77847 0.0
H93 H 0.04456 0.54323 0.78641 0.0
H94 H 0.01228 0.55016 0.75457 0.0
H95 H 0.01538 0.57677 0.76422 0.0
H96 H 0.06378 0.53540 0.74864 0.0
H97 H 0.04292 0.54366 0.74099 0.0
H98 H 0.03946 0.50084 0.77332 0.0
H99 H 0.05860 0.49656 0.76337 0.0
C100 C 0.08034 0.51921 0.78629 0.0
C101 C 0.04916 0.55114 0.77788 0.0
C102 C 0.01789 0.55562 0.76352 0.0
C103 C 0.98947 0.55614 0.77904 0.0
C104 C 0.03675 0.59742 0.74070 0.0
C105 C 0.05016 0.54764 0.74936 0.0
C106 C 0.04458 0.50616 0.76423 0.0
C107 C 0.03588 0.46835 0.74921 0.0
C108 C 0.04042 0.54011 0.76375 0.0
O109 O 0.02501 0.46340 0.27890 0.0
O110 O 0.04996 0.45332 0.26136 0.0
O111 O 0.03427 0.54805 0.25975 0.0
O112 O 0.04587 0.58672 0.25363 0.0
O113 O 0.07243 0.50756 0.21604 0.0
O114 O 0.07138 0.47328 0.23336 0.0
O115 O 0.00974 0.52211 0.23568 0.0
O116 O 0.97900 0.51897 0.24197 0.0
H117 H 0.06395 0.48544 0.26212 0.0
H118 H 0.04311 0.49493 0.27024 0.0
H119 H 0.03959 0.54073 0.23799 0.0
H120 H 0.05875 0.52869 0.24751 0.0
H121 H 0.04478 0.46458 0.23272 0.0
H122 H 0.04466 0.49400 0.22479 0.0
H123 H 0.01244 0.51454 0.25737 0.0
H124 H 0.01551 0.48530 0.24765 0.0
C125 C 0.03693 0.44644 0.27067 0.0
C126 C 0.05033 0.48479 0.26171 0.0
C127 C 0.04473 0.53104 0.24697 0.0
C128 C 0.03607 0.57624 0.26218 0.0
C129 C 0.08043 0.48756 0.22408 0.0
C130 C 0.04927 0.48217 0.23321 0.0
C131 C 0.01803 0.50431 0.24829 0.0
C132 C 0.98958 0.52801 0.23341 0.0
C133 C 0.04056 0.50063 0.24755 0.0
C134 C 0.76658 0.67960 0.10918 0.0
C135 C 0.77066 0.65115 0.09898 0.0
C136 C 0.75713 0.65082 0.08542 0.0
C137 C 0.76098 0.62250 0.07513 0.0
C138 C 0.74731 0.62237 0.06161 0.0
C139 C 0.72982 0.65053 0.05844 0.0
C140 C 0.72602 0.67885 0.06869 0.0
C141 C 0.73967 0.67898 0.08219 0.0
C142 C 0.72416 0.62321 0.03504 0.0
C143 C 0.71008 0.63044 0.02161 0.0
C144 C 0.68977 0.62306 0.02196 0.0
C145 C 0.67413 0.63559 0.00988 0.0
C146 C 0.67972 0.65218 0.99655 0.0
C147 C 0.70083 0.65698 0.99553 0.0
C148 C 0.71602 0.64614 0.00810 0.0
C149 C 0.73650 0.65314 0.00773 0.0
C150 C 0.68448 0.60544 0.03502 0.0
C151 C 0.66392 0.66487 0.98456 0.0
C152 C 0.65279 0.63196 0.01116 0.0
C153 C 0.61761 0.66209 0.01573 0.0
C154 C 0.61254 0.63234 0.01235 0.0
C155 C 0.59035 0.63207 0.01151 0.0
C156 C 0.57328 0.66155 0.01405 0.0
C157 C 0.57836 0.69127 0.01756 0.0
C158 C 0.60055 0.69153 0.01840 0.0
C159 C 0.55111 0.66122 0.01305 0.0
C160 C 0.54616 0.63143 0.00947 0.0
C161 C 0.70643 0.67412 0.98245 0.0
C162 C 0.72155 0.66522 0.95728 0.0
C163 C 0.71876 0.69939 0.95726 0.0
C164 C 0.72964 0.71264 0.94533 0.0
C165 C 0.74333 0.69166 0.93349 0.0
C166 C 0.74605 0.65750 0.93350 0.0
C167 C 0.73515 0.64427 0.94541 0.0
C168 C 0.75440 0.70473 0.92163 0.0
C169 C 0.76818 0.68351 0.90993 0.0
O170 O 0.71652 0.65075 0.04515 0.0
O171 O 0.71172 0.65204 0.96937 0.0
O172 O 0.63931 0.66251 0.01607 0.0
H173 H 0.75358 0.70029 0.10666 0.0
H174 H 0.78365 0.63041 0.10147 0.0
H175 H 0.77392 0.60165 0.07752 0.0
H176 H 0.75014 0.60147 0.05396 0.0
H177 H 0.71311 0.69971 0.06627 0.0
H178 H 0.73685 0.69991 0.08980 0.0
H179 H 0.72282 0.60217 0.04078 0.0
H180 H 0.74042 0.62047 0.03134 0.0
H181 H 0.73645 0.66974 0.99854 0.0
H182 H 0.74915 0.63148 0.00543 0.0
H183 H 0.73899 0.66349 0.01899 0.0
H184 H 0.69435 0.60701 0.04499 0.0
H185 H 0.68741 0.58078 0.03135 0.0
H186 H 0.66790 0.61515 0.03833 0.0
H187 H 0.67046 0.67769 0.97612 0.0
H188 H 0.64993 0.68077 0.99019 0.0
H189 H 0.65961 0.64558 0.97860 0.0
H190 H 0.64790 0.62504 0.99990 0.0
H191 H 0.65229 0.61448 0.01978 0.0
H192 H 0.62521 0.61056 0.01040 0.0
H193 H 0.58656 0.61008 0.00897 0.0
H194 H 0.56571 0.71307 0.01950 0.0
H195 H 0.60437 0.71353 0.02094 0.0
H196 H 0.53840 0.68297 0.01494 0.0
H197 H 0.55890 0.60972 0.00760 0.0
H198 H 0.69329 0.69434 0.97956 0.0
H199 H 0.72014 0.68193 0.98558 0.0
H200 H 0.70876 0.71480 0.96612 0.0
H201 H 0.72765 0.73793 0.94530 0.0
H202 H 0.75620 0.64203 0.92472 0.0
H203 H 0.73725 0.61897 0.94550 0.0
H204 H 0.75244 0.73001 0.92152 0.0
H205 H 0.77010 0.65825 0.91008 0.0
C206 C 0.30879 0.36575 0.90223 0.0
C207 C 0.32045 0.33789 0.91083 0.0
C208 C 0.33298 0.34181 0.92449 0.0
C209 C 0.34478 0.31416 0.93318 0.0
C210 C 0.35732 0.31831 0.94681 0.0
C211 C 0.35805 0.35007 0.95170 0.0
C212 C 0.34621 0.37769 0.94305 0.0
C213 C 0.33369 0.37355 0.92943 0.0
C214 C 0.37813 0.32586 0.97362 0.0
C215 C 0.38716 0.33666 0.98756 0.0
C216 C 0.40896 0.33874 0.98706 0.0
C217 C 0.41654 0.35500 0.99990 0.0
C218 C 0.40330 0.36578 0.01408 0.0
C219 C 0.38218 0.36102 0.01511 0.0
C220 C 0.37409 0.34648 0.00181 0.0
C221 C 0.35235 0.34399 0.00230 0.0
C222 C 0.42248 0.32690 0.97316 0.0
C223 C 0.41095 0.38226 0.02690 0.0
C224 C 0.43725 0.36091 0.99876 0.0
C225 C 0.45232 0.40270 0.99624 0.0
C226 C 0.47253 0.37830 0.99808 0.0
C227 C 0.49228 0.38729 0.99990 0.0
C228 C 0.49178 0.42067 0.99842 0.0
C229 C 0.47156 0.44505 0.99646 0.0
C230 C 0.45182 0.43605 0.99537 0.0
C231 C 0.51154 0.42958 0.99990 0.0
C232 C 0.53168 0.40508 0.00169 0.0
C233 C 0.36864 0.37231 0.02899 0.0
C234 C 0.36074 0.35536 0.05343 0.0
C235 C 0.34525 0.38658 0.05532 0.0
C236 C 0.32904 0.39235 0.06779 0.0
C237 C 0.32836 0.36685 0.07831 0.0
C238 C 0.34390 0.33567 0.07642 0.0
C239 C 0.36011 0.32992 0.06397 0.0
C240 C 0.31208 0.37239 0.09070 0.0
C241 C 0.31143 0.34666 0.10106 0.0
O242 O 0.37009 0.35439 0.96511 0.0
O243 O 0.37597 0.34923 0.04078 0.0
O244 O 0.43294 0.39398 0.99567 0.0
H245 H 0.30946 0.38913 0.90602 0.0
H246 H 0.31981 0.31448 0.90708 0.0
H247 H 0.34424 0.29065 0.92952 0.0
H248 H 0.36605 0.29790 0.95327 0.0
H249 H 0.34672 0.40120 0.94673 0.0
H250 H 0.32494 0.39398 0.92300 0.0
H251 H 0.39019 0.30854 0.96678 0.0
H252 H 0.36533 0.31621 0.97696 0.0
H253 H 0.34395 0.35760 0.01236 0.0
H254 H 0.35264 0.31938 0.00328 0.0
H255 H 0.34436 0.35329 0.99160 0.0
H256 H 0.41264 0.32523 0.96318 0.0
H257 H 0.43297 0.30358 0.97546 0.0
H258 H 0.43192 0.34277 0.97058 0.0
H259 H 0.39870 0.38987 0.03593 0.0
H260 H 0.41476 0.40275 0.02232 0.0
H261 H 0.42507 0.36646 0.03186 0.0
H262 H 0.44554 0.35564 0.00977 0.0
H263 H 0.44661 0.34671 0.98923 0.0
H264 H 0.47285 0.35361 0.99869 0.0
H265 H 0.50726 0.36927 0.00010 0.0
H266 H 0.47121 0.46975 0.99585 0.0
H267 H 0.43681 0.45407 0.99398 0.0
H268 H 0.51127 0.45425 0.99990 0.0
H269 H 0.53190 0.38042 0.00224 0.0
H270 H 0.36969 0.39529 0.03313 0.0
H271 H 0.35233 0.37375 0.02613 0.0
H272 H 0.34570 0.40531 0.04743 0.0
H273 H 0.31752 0.41543 0.06921 0.0
H274 H 0.34335 0.31684 0.08422 0.0
H275 H 0.37155 0.30680 0.06249 0.0
H276 H 0.30053 0.39544 0.09219 0.0
H277 H 0.32301 0.32365 0.09952 0.0
C278 C 0.93417 0.59872 0.79172 0.0
C279 C 0.93742 0.61882 0.78130 0.0
C280 C 0.95655 0.61343 0.77488 0.0
C281 C 0.97207 0.58840 0.77873 0.0
C282 C 0.96858 0.56871 0.78902 0.0
C283 C 0.94944 0.57433 0.79555 0.0
C284 C 0.91342 0.60332 0.79868 0.0
H285 H 0.92690 0.63566 0.77865 0.0
H286 H 0.95901 0.62679 0.76788 0.0
H287 H 0.98497 0.58492 0.77433 0.0
H288 H 0.94705 0.56115 0.80268 0.0
H289 H 0.90333 0.61809 0.79303 0.0
H290 H 0.90988 0.58422 0.79828 0.0
C291 C 0.82910 0.65034 0.89144 0.0
C292 C 0.81227 0.67518 0.89021 0.0
C293 C 0.84874 0.65113 0.88417 0.0
C294 C 0.86896 0.64201 0.86050 0.0
C295 C 0.87161 0.62931 0.84491 0.0
C296 C 0.82774 0.62580 0.89945 0.0
C297 C 0.80948 0.62637 0.90629 0.0
C298 C 0.79394 0.67547 0.89685 0.0
H299 H 0.83903 0.60894 0.90028 0.0
H300 H 0.80862 0.61009 0.91203 0.0
H301 H 0.78012 0.65057 0.90905 0.0
H302 H 0.81327 0.69188 0.88486 0.0
H303 H 0.86005 0.63822 0.88961 0.0
C304 C 0.89308 0.61755 0.82192 0.0
C305 C 0.89195 0.62900 0.83796 0.0
H306 H 0.86913 0.66309 0.86031 0.0
H307 H 0.87052 0.60863 0.84492 0.0
H308 H 0.86071 0.64123 0.83874 0.0
H309 H 0.88051 0.63106 0.86638 0.0
H310 H 0.84983 0.67178 0.88480 0.0
H311 H 0.89032 0.59793 0.82160 0.0
H312 H 0.88266 0.63151 0.81618 0.0
N313 N 0.91330 0.61428 0.81472 0.0
N314 N 0.85011 0.64074 0.86813 0.0
C315 C 0.79251 0.65077 0.90474 0.0
C316 C 0.94507 0.60009 0.21526 0.0
C317 C 0.94443 0.61412 0.22932 0.0
C318 C 0.95703 0.59892 0.24039 0.0
C319 C 0.97007 0.57037 0.23745 0.0
C320 C 0.97056 0.55687 0.22347 0.0
C321 C 0.95777 0.57203 0.21244 0.0
C322 C 0.93199 0.61618 0.20276 0.0
H323 H 0.93567 0.63348 0.23128 0.0
H324 H 0.95673 0.60802 0.24993 0.0
H325 H 0.97855 0.56025 0.24501 0.0
H326 H 0.95790 0.56276 0.20295 0.0
H327 H 0.92656 0.63764 0.20544 0.0
H328 H 0.94018 0.61438 0.19359 0.0
C329 C 0.81746 0.62130 0.13528 0.0
C330 C 0.80217 0.64836 0.13632 0.0
C331 C 0.82796 0.60842 0.14940 0.0
C332 C 0.85549 0.60938 0.16704 0.0
C333 C 0.87378 0.61930 0.17024 0.0
C334 C 0.82249 0.60643 0.12156 0.0
C335 C 0.81206 0.61874 0.10891 0.0
C336 C 0.79200 0.66086 0.12360 0.0
H337 H 0.83283 0.58820 0.12080 0.0
H338 H 0.81510 0.60837 0.09965 0.0
H339 H 0.79062 0.65469 0.10116 0.0
H340 H 0.79869 0.65830 0.14565 0.0
H341 H 0.83302 0.58645 0.14820 0.0
C342 C 0.90237 0.61739 0.18724 0.0
C343 C 0.88474 0.60498 0.18417 0.0
H344 H 0.84589 0.61604 0.17540 0.0
H345 H 0.88308 0.61395 0.16160 0.0
H346 H 0.86983 0.64130 0.17160 0.0
H347 H 0.85938 0.58732 0.16654 0.0
H348 H 0.81819 0.61307 0.15776 0.0
H349 H 0.91097 0.61451 0.17825 0.0
H350 H 0.89729 0.63905 0.18946 0.0
N351 N 0.91488 0.60254 0.20007 0.0
N352 N 0.84515 0.62089 0.15300 0.0
C353 C 0.79719 0.64616 0.10983 0.0
C354 C 0.12906 0.45110 0.79882 0.0
C355 C 0.11546 0.43394 0.79767 0.0
C356 C 0.09574 0.44797 0.79347 0.0
C357 C 0.08978 0.47846 0.79040 0.0
C358 C 0.10344 0.49507 0.79154 0.0
C359 C 0.12314 0.48102 0.79591 0.0
C360 C 0.15082 0.43653 0.80297 0.0
H361 H 0.11952 0.41330 0.79968 0.0
H362 H 0.08638 0.43676 0.79269 0.0
H363 H 0.07642 0.48777 0.78756 0.0
H364 H 0.13243 0.49233 0.79685 0.0
H365 H 0.15383 0.41456 0.80207 0.0
H366 H 0.15987 0.44285 0.79608 0.0
C367 C 0.25766 0.42266 0.87850 0.0
C368 C 0.26605 0.39354 0.88337 0.0
C369 C 0.23523 0.43316 0.87570 0.0
C370 C 0.20835 0.43406 0.85718 0.0
C371 C 0.20308 0.42850 0.84146 0.0
C372 C 0.26975 0.44159 0.87662 0.0
C373 C 0.29024 0.43122 0.87971 0.0
C374 C 0.28661 0.38308 0.88621 0.0
H375 H 0.26417 0.46124 0.87331 0.0
H376 H 0.29840 0.44422 0.87879 0.0
H377 H 0.31272 0.39486 0.88582 0.0
H378 H 0.25779 0.38082 0.88474 0.0
H379 H 0.23037 0.45509 0.87720 0.0
C380 C 0.17608 0.43251 0.82279 0.0
C381 C 0.18044 0.44049 0.83864 0.0
H382 H 0.20174 0.42313 0.86382 0.0
H383 H 0.21040 0.43821 0.83470 0.0
H384 H 0.20753 0.40678 0.83915 0.0
H385 H 0.20286 0.45558 0.85968 0.0
H386 H 0.22819 0.42406 0.88295 0.0
H387 H 0.18456 0.43986 0.81589 0.0
H388 H 0.17962 0.41057 0.82151 0.0
N389 N 0.15433 0.44568 0.81880 0.0
N390 N 0.23032 0.42485 0.86022 0.0
C391 C 0.29877 0.40190 0.88416 0.0
C392 C 0.14485 0.46577 0.21847 0.0
C393 C 0.14537 0.48963 0.22816 0.0
C394 C 0.12731 0.50767 0.23436 0.0
C395 C 0.10915 0.50188 0.23100 0.0
C396 C 0.10892 0.47813 0.22143 0.0
C397 C 0.12702 0.46028 0.21511 0.0
C398 C 0.16422 0.44508 0.21179 0.0
H399 H 0.15766 0.49346 0.23047 0.0
H400 H 0.12739 0.52388 0.24086 0.0
H401 H 0.09701 0.51419 0.23524 0.0
H402 H 0.12690 0.44428 0.20847 0.0
H403 H 0.17584 0.44814 0.21715 0.0
H404 H 0.16431 0.42399 0.21285 0.0
C405 C 0.24655 0.37344 0.11949 0.0
C406 C 0.26582 0.37707 0.12026 0.0
C407 C 0.22907 0.39778 0.12633 0.0
C408 C 0.20969 0.41720 0.14981 0.0
C409 C 0.20548 0.41192 0.16570 0.0
C410 C 0.24364 0.34821 0.11230 0.0
C411 C 0.26011 0.32674 0.10583 0.0
C412 C 0.28231 0.35530 0.11399 0.0
H413 H 0.23067 0.34562 0.11178 0.0
H414 H 0.25813 0.30996 0.10063 0.0
H415 H 0.29053 0.31483 0.10288 0.0
H416 H 0.26774 0.39430 0.12505 0.0
H417 H 0.21665 0.39783 0.12109 0.0
C418 C 0.18454 0.43023 0.18856 0.0
C419 C 0.18718 0.43599 0.17224 0.0
H420 H 0.21299 0.43639 0.14935 0.0
H421 H 0.20309 0.39208 0.16636 0.0
H422 H 0.21737 0.41160 0.17169 0.0
H423 H 0.19738 0.41919 0.14407 0.0
H424 H 0.23144 0.41747 0.12504 0.0
H425 H 0.18383 0.40953 0.18956 0.0
H426 H 0.19632 0.43220 0.19405 0.0
N427 N 0.16586 0.45156 0.19546 0.0
N428 N 0.22639 0.39324 0.14261 0.0
C429 C 0.27944 0.32986 0.10693 0.0
C430 C 0.54418 0.47948 0.00944 0.0
H431 H 0.55885 0.47717 0.00895 0.0
H432 H 0.54069 0.47536 0.01976 0.0
C433 C 0.53285 0.51116 0.00581 0.0
H434 H 0.51861 0.51622 0.00471 0.0
C435 C 0.54199 0.53211 0.00410 0.0
H436 H 0.55631 0.52657 0.00436 0.0
C437 C 0.53084 0.56420 0.00176 0.0
H438 H 0.53311 0.56963 0.99140 0.0
H439 H 0.51618 0.56728 0.00329 0.0
C440 C 0.01803 0.18396 0.67541 0.0
C441 C 0.01936 0.21389 0.68259 0.0
C442 C 0.02070 0.24383 0.68978 0.0
C443 C 0.03472 0.26062 0.68288 0.0
C444 C 0.03604 0.29056 0.69007 0.0
C445 C 0.02335 0.30369 0.70416 0.0
C446 C 0.00934 0.28689 0.71106 0.0
C447 C 0.00802 0.25696 0.70387 0.0
C448 C 0.02467 0.33364 0.71134 0.0
C449 C 0.01197 0.34679 0.72542 0.0
C450 C 0.01330 0.37674 0.73260 0.0
C451 C 0.02733 0.39351 0.72569 0.0
C452 C 0.04004 0.38036 0.71161 0.0
C453 C 0.03871 0.35041 0.70443 0.0
C454 C 0.02867 0.42346 0.73287 0.0
C455 C 0.03002 0.45340 0.74003 0.0
H456 H 0.04412 0.25090 0.67244 0.0
H457 H 0.04642 0.30299 0.68495 0.0
H458 H 0.99990 0.29662 0.72149 0.0
H459 H 0.99765 0.24451 0.70899 0.0
H460 H 0.00159 0.33437 0.73054 0.0
H461 H 0.00389 0.38649 0.74302 0.0
H462 H 0.05042 0.39278 0.70649 0.0
H463 H 0.04811 0.34066 0.69401 0.0
C464 C 0.01826 0.90037 0.67444 0.0
C465 C 0.02035 0.86973 0.68155 0.0
C466 C 0.02245 0.83909 0.68867 0.0
C467 C 0.02333 0.81115 0.67869 0.0
C468 C 0.02543 0.78052 0.68581 0.0
C469 C 0.02665 0.77783 0.70291 0.0
C470 C 0.02576 0.80578 0.71290 0.0
C471 C 0.02366 0.83640 0.70577 0.0
C472 C 0.02876 0.74719 0.71003 0.0
C473 C 0.02999 0.74449 0.72713 0.0
C474 C 0.03210 0.71384 0.73424 0.0
C475 C 0.03297 0.68590 0.72425 0.0
C476 C 0.03174 0.68861 0.70715 0.0
C477 C 0.02963 0.71925 0.70004 0.0
C478 C 0.03508 0.65525 0.73136 0.0
C479 C 0.03718 0.62459 0.73845 0.0
H480 H 0.02243 0.81314 0.66602 0.0
H481 H 0.02609 0.75983 0.67842 0.0
H482 H 0.02667 0.80379 0.72556 0.0
H483 H 0.02299 0.85710 0.71316 0.0
H484 H 0.02934 0.76516 0.73453 0.0
H485 H 0.03303 0.71182 0.74690 0.0
H486 H 0.03239 0.66792 0.69975 0.0
H487 H 0.02871 0.72126 0.68738 0.0
C488 C 0.01850 0.87571 0.33638 0.0
C489 C 0.01981 0.84465 0.32917 0.0
C490 C 0.02112 0.81358 0.32197 0.0
C491 C 0.00685 0.79566 0.32732 0.0
C492 C 0.00817 0.76460 0.32011 0.0
C493 C 0.02376 0.75145 0.30754 0.0
C494 C 0.03804 0.76937 0.30218 0.0
C495 C 0.03672 0.80042 0.30940 0.0
C496 C 0.02507 0.72040 0.30032 0.0
C497 C 0.04065 0.70725 0.28775 0.0
C498 C 0.04195 0.67620 0.28053 0.0
C499 C 0.02768 0.65828 0.28590 0.0
C500 C 0.01210 0.67143 0.29848 0.0
C501 C 0.01080 0.70248 0.30569 0.0
C502 C 0.02898 0.62722 0.27869 0.0
C503 C 0.03026 0.59615 0.27150 0.0
H504 H 0.99531 0.80539 0.33663 0.0
H505 H 0.99761 0.75134 0.32407 0.0
H506 H 0.04958 0.75964 0.29288 0.0
H507 H 0.04729 0.81369 0.30544 0.0
H508 H 0.05122 0.72050 0.28377 0.0
H509 H 0.05347 0.66646 0.27122 0.0
H510 H 0.00153 0.65817 0.30245 0.0
H511 H 0.99990 0.71222 0.31500 0.0
C512 C 0.01872 0.15909 0.33735 0.0
C513 C 0.02078 0.18796 0.33019 0.0
C514 C 0.02285 0.21684 0.32303 0.0
C515 C 0.03580 0.23503 0.33054 0.0
C516 C 0.03786 0.26390 0.32337 0.0
C517 C 0.02696 0.27458 0.30870 0.0
C518 C 0.01400 0.25639 0.30119 0.0
C519 C 0.01194 0.22753 0.30836 0.0
C520 C 0.02904 0.30344 0.30153 0.0
C521 C 0.01815 0.31412 0.28685 0.0
C522 C 0.02023 0.34298 0.27969 0.0
C523 C 0.03318 0.36117 0.28721 0.0
C524 C 0.04407 0.35049 0.30189 0.0
C525 C 0.04199 0.32163 0.30905 0.0
C526 C 0.03526 0.39004 0.28005 0.0
C527 C 0.03735 0.41892 0.27291 0.0
H528 H 0.04387 0.22713 0.34141 0.0
H529 H 0.04746 0.27736 0.32893 0.0
H530 H 0.00594 0.26429 0.29033 0.0
H531 H 0.00234 0.21407 0.30281 0.0
H532 H 0.00856 0.30066 0.28129 0.0
H533 H 0.01219 0.35088 0.26882 0.0
H534 H 0.05366 0.36395 0.30746 0.0
H535 H 0.05004 0.31372 0.31992 0.0
C536 C 0.01168 0.03203 0.49736 0.0
C537 C 0.99205 0.03341 0.48897 0.0
C538 C 0.99208 0.03218 0.47176 0.0
C539 C 0.01175 0.02957 0.46293 0.0
C540 C 0.03136 0.02821 0.47132 0.0
N541 N 0.03133 0.02944 0.48853 0.0
C542 C 0.01164 0.03324 0.51457 0.0
N543 N 0.03126 0.03186 0.52297 0.0
C544 C 0.03119 0.03311 0.54019 0.0
C545 C 0.01151 0.03574 0.54899 0.0
C546 C 0.99191 0.03710 0.54059 0.0
C547 C 0.99198 0.03584 0.52339 0.0
H548 H 0.97756 0.03320 0.46556 0.0
H549 H 0.04591 0.02629 0.46478 0.0
H550 H 0.04570 0.03209 0.54641 0.0
H551 H 0.97734 0.03904 0.54712 0.0
H552 H 0.97750 0.03535 0.49551 0.0
H553 H 0.97747 0.03683 0.51717 0.0
