data_{}
_symmetry_space_group_name_H-M    P1
_symmetry_Int_Tables_number       1
_symmetry_cell_setting            triclinic
loop_
_symmetry_equiv_pos_as_xyz
'x, y, z'
_cell_length_a     70.761
_cell_length_b     70.721
_cell_length_c     42.185
_cell_angle_alpha  90.589
_cell_angle_beta   90.589
_cell_angle_gamma  80.585
loop_
_atom_site_label
_atom_site_type_symbol
_atom_site_fract_x
_atom_site_fract_y
_atom_site_fract_z
_atom_type_partial_charge
C0 C 0.99200 0.49996 0.99990 0.0
C1 C 0.01203 0.50580 0.00010 0.0
C2 C 0.02188 0.50867 0.96883 0.0
C3 C 0.02193 0.50869 0.03231 0.0
C4 C 0.98215 0.49709 0.03154 0.0
C5 C 0.98210 0.49707 0.96806 0.0
C6 C 0.03416 0.49163 0.95205 0.0
C7 C 0.04518 0.49485 0.92215 0.0
C8 C 0.04157 0.51441 0.90573 0.0
C9 C 0.02930 0.53145 0.92251 0.0
C10 C 0.01827 0.52824 0.95241 0.0
C11 C 0.03424 0.49165 0.04890 0.0
C12 C 0.04532 0.49489 0.07924 0.0
C13 C 0.04174 0.51446 0.09619 0.0
C14 C 0.02943 0.53149 0.07959 0.0
C15 C 0.01835 0.52826 0.04926 0.0
C16 C 0.96988 0.51413 0.04832 0.0
C17 C 0.95885 0.51091 0.07822 0.0
C18 C 0.96246 0.49134 0.09464 0.0
C19 C 0.97473 0.47430 0.07786 0.0
C20 C 0.98576 0.47752 0.04796 0.0
C21 C 0.96979 0.51410 0.95147 0.0
C22 C 0.95871 0.51087 0.92113 0.0
C23 C 0.96229 0.49129 0.90419 0.0
C24 C 0.97460 0.47426 0.92078 0.0
C25 C 0.98568 0.47749 0.95111 0.0
H26 H 0.03503 0.47657 0.96194 0.0
H27 H 0.05611 0.48271 0.91199 0.0
H28 H 0.02840 0.54653 0.91266 0.0
H29 H 0.00734 0.54037 0.96256 0.0
H30 H 0.03510 0.47659 0.03855 0.0
H31 H 0.05626 0.48276 0.08932 0.0
H32 H 0.00741 0.54039 0.03918 0.0
H33 H 0.96900 0.52919 0.03843 0.0
H34 H 0.94792 0.52304 0.08838 0.0
H35 H 0.97563 0.45923 0.08771 0.0
H36 H 0.99669 0.46539 0.03781 0.0
H37 H 0.96893 0.52917 0.96182 0.0
H38 H 0.94777 0.52300 0.91105 0.0
H39 H 0.97548 0.45918 0.91047 0.0
H40 H 0.99662 0.46537 0.96120 0.0
H41 H 0.02855 0.54657 0.08990 0.0
C42 C 0.50408 0.01341 0.00010 0.0
C43 C 0.49826 0.99337 0.99990 0.0
C44 C 0.49539 0.98351 0.03155 0.0
C45 C 0.49538 0.98346 0.96806 0.0
C46 C 0.50694 0.02327 0.96883 0.0
C47 C 0.50696 0.02332 0.03232 0.0
C48 C 0.51243 0.97123 0.04833 0.0
C49 C 0.50922 0.96020 0.07823 0.0
C50 C 0.48967 0.96380 0.09465 0.0
C51 C 0.47263 0.97607 0.07787 0.0
C52 C 0.47584 0.98711 0.04797 0.0
C53 C 0.51240 0.97115 0.95147 0.0
C54 C 0.50918 0.96006 0.92114 0.0
C55 C 0.48962 0.96363 0.90419 0.0
C56 C 0.47259 0.97594 0.92078 0.0
C57 C 0.47581 0.98702 0.95111 0.0
C58 C 0.48990 0.03554 0.95205 0.0
C59 C 0.49311 0.04658 0.92215 0.0
C60 C 0.51267 0.04298 0.90573 0.0
C61 C 0.52970 0.03071 0.92251 0.0
C62 C 0.52650 0.01967 0.95241 0.0
C63 C 0.48993 0.03563 0.04891 0.0
C64 C 0.49315 0.04671 0.07924 0.0
C65 C 0.51271 0.04315 0.09619 0.0
C66 C 0.52974 0.03084 0.07960 0.0
C67 C 0.52652 0.01975 0.04927 0.0
H68 H 0.52748 0.97037 0.03843 0.0
H69 H 0.52135 0.94927 0.08838 0.0
H70 H 0.45757 0.97696 0.08772 0.0
H71 H 0.46371 0.99803 0.03781 0.0
H72 H 0.52746 0.97030 0.96182 0.0
H73 H 0.52131 0.94912 0.91105 0.0
H74 H 0.46369 0.99797 0.96120 0.0
H75 H 0.47485 0.03641 0.96195 0.0
H76 H 0.48098 0.05750 0.91200 0.0
H77 H 0.54477 0.02982 0.91266 0.0
H78 H 0.53863 0.00875 0.96257 0.0
H79 H 0.47487 0.03648 0.03856 0.0
H80 H 0.48102 0.05765 0.08933 0.0
H81 H 0.54481 0.02997 0.08991 0.0
H82 H 0.53865 0.00881 0.03918 0.0
H83 H 0.45752 0.97681 0.91047 0.0
H84 H 0.56178 0.46482 0.50110 0.0
H85 H 0.54046 0.44348 0.49852 0.0
C86 C 0.50946 0.48280 0.49807 0.0
C87 C 0.53587 0.45660 0.49893 0.0
C88 C 0.51620 0.46305 0.49769 0.0
C89 C 0.48893 0.49012 0.49238 0.0
C90 C 0.48149 0.51074 0.49825 0.0
C91 C 0.46176 0.51732 0.49790 0.0
C92 C 0.48759 0.54339 0.50337 0.0
C93 C 0.49445 0.52374 0.50168 0.0
C94 C 0.51534 0.51665 0.50538 0.0
C95 C 0.52248 0.49582 0.50110 0.0
C96 C 0.46798 0.54980 0.50284 0.0
C97 C 0.45520 0.53693 0.50034 0.0
H98 H 0.44208 0.54146 0.50030 0.0
H99 H 0.46335 0.56287 0.50417 0.0
O100 O 0.47826 0.47976 0.48116 0.0
O101 O 0.52624 0.52746 0.51335 0.0
C102 C 0.54215 0.48903 0.50213 0.0
C103 C 0.54870 0.46938 0.50077 0.0
C104 C 0.19711 0.55598 0.53306 0.0
C105 C 0.20821 0.55609 0.50688 0.0
C106 C 0.22872 0.55558 0.50591 0.0
C107 C 0.24658 0.55579 0.50543 0.0
C108 C 0.26589 0.55535 0.50607 0.0
C109 C 0.27589 0.55921 0.53270 0.0
C110 C 0.29595 0.55974 0.53031 0.0
C111 C 0.30367 0.55712 0.50167 0.0
C112 C 0.29369 0.55360 0.47669 0.0
C113 C 0.27454 0.55298 0.47936 0.0
C114 C 0.19918 0.55679 0.47618 0.0
C115 C 0.17856 0.55722 0.47288 0.0
C116 C 0.16937 0.55806 0.44361 0.0
C117 C 0.16095 0.55883 0.41943 0.0
C118 C 0.14965 0.55762 0.39139 0.0
C119 C 0.15992 0.56118 0.36422 0.0
C120 C 0.14944 0.56054 0.33305 0.0
C121 C 0.12918 0.55637 0.33564 0.0
C122 C 0.12080 0.55397 0.36492 0.0
C123 C 0.13165 0.55369 0.39192 0.0
C124 C 0.16864 0.55662 0.50121 0.0
C125 C 0.17811 0.55591 0.53231 0.0
C126 C 0.16757 0.55622 0.55906 0.0
C127 C 0.15820 0.55617 0.58267 0.0
C128 C 0.14734 0.55654 0.61249 0.0
C129 C 0.12976 0.55287 0.61272 0.0
C130 C 0.11895 0.55447 0.64004 0.0
C131 C 0.12847 0.55681 0.66881 0.0
C132 C 0.14721 0.55974 0.66724 0.0
C133 C 0.15701 0.55865 0.64126 0.0
H134 H 0.20309 0.55598 0.55282 0.0
H135 H 0.26976 0.56146 0.55200 0.0
H136 H 0.30325 0.56183 0.54805 0.0
H137 H 0.29959 0.55153 0.45709 0.0
H138 H 0.26760 0.55078 0.46121 0.0
H139 H 0.20659 0.55696 0.45809 0.0
H140 H 0.17241 0.56375 0.36541 0.0
H141 H 0.15498 0.56255 0.31372 0.0
H142 H 0.10800 0.55260 0.36592 0.0
H143 H 0.12650 0.55071 0.41105 0.0
H144 H 0.15550 0.55668 0.50033 0.0
H145 H 0.12441 0.54909 0.59392 0.0
H146 H 0.10591 0.55401 0.63938 0.0
H147 H 0.15319 0.56269 0.68598 0.0
H148 H 0.17004 0.55924 0.64162 0.0
C149 C 0.55587 0.19834 0.53309 0.0
C150 C 0.55578 0.20947 0.50690 0.0
C151 C 0.55633 0.22982 0.50594 0.0
C152 C 0.55616 0.24776 0.50546 0.0
C153 C 0.55664 0.26692 0.50612 0.0
C154 C 0.55281 0.27820 0.53263 0.0
C155 C 0.55232 0.29843 0.53023 0.0
C156 C 0.55495 0.30530 0.50167 0.0
C157 C 0.55845 0.29415 0.47678 0.0
C158 C 0.55903 0.27479 0.47948 0.0
C159 C 0.55506 0.20067 0.47619 0.0
C160 C 0.55459 0.18019 0.47287 0.0
C161 C 0.55373 0.17127 0.44358 0.0
C162 C 0.55294 0.16310 0.41938 0.0
C163 C 0.55413 0.15140 0.39136 0.0
C164 C 0.55059 0.16285 0.36410 0.0
C165 C 0.55121 0.15216 0.33294 0.0
C166 C 0.55534 0.13052 0.33566 0.0
C167 C 0.55771 0.12134 0.36501 0.0
C168 C 0.55801 0.13210 0.39201 0.0
C169 C 0.55517 0.17007 0.50122 0.0
C170 C 0.55589 0.17931 0.53234 0.0
C171 C 0.55557 0.16886 0.55908 0.0
C172 C 0.55559 0.15948 0.58269 0.0
C173 C 0.55520 0.14874 0.61250 0.0
C174 C 0.55883 0.12995 0.61283 0.0
C175 C 0.55721 0.11966 0.64011 0.0
C176 C 0.55489 0.12995 0.66881 0.0
C177 C 0.55200 0.14966 0.66716 0.0
C178 C 0.55312 0.15911 0.64121 0.0
H179 H 0.55588 0.20431 0.55284 0.0
H180 H 0.55055 0.27281 0.55187 0.0
H181 H 0.55025 0.30642 0.54791 0.0
H182 H 0.56053 0.29938 0.45725 0.0
H183 H 0.56121 0.26713 0.46139 0.0
H184 H 0.55490 0.20814 0.45809 0.0
H185 H 0.54805 0.17619 0.36522 0.0
H186 H 0.54921 0.15836 0.31355 0.0
H187 H 0.55905 0.10810 0.36604 0.0
H188 H 0.56098 0.12597 0.41123 0.0
H189 H 0.55508 0.15694 0.50033 0.0
H190 H 0.56259 0.12335 0.59414 0.0
H191 H 0.55764 0.10647 0.63946 0.0
H192 H 0.54907 0.15661 0.68581 0.0
H193 H 0.55256 0.17234 0.64155 0.0
C194 C 0.80709 0.44830 0.46729 0.0
C195 C 0.79596 0.44841 0.49348 0.0
C196 C 0.77562 0.44790 0.49443 0.0
C197 C 0.75769 0.44811 0.49492 0.0
C198 C 0.73852 0.44767 0.49426 0.0
C199 C 0.72726 0.45154 0.46775 0.0
C200 C 0.70703 0.45206 0.47015 0.0
C201 C 0.70016 0.44945 0.49871 0.0
C202 C 0.71129 0.44592 0.52360 0.0
C203 C 0.73065 0.44531 0.52090 0.0
C204 C 0.80476 0.44912 0.52419 0.0
C205 C 0.82524 0.44954 0.52751 0.0
C206 C 0.83416 0.45038 0.55680 0.0
C207 C 0.84233 0.45115 0.58100 0.0
C208 C 0.85403 0.44994 0.60901 0.0
C209 C 0.84258 0.45351 0.63628 0.0
C210 C 0.85327 0.45286 0.66743 0.0
C211 C 0.87490 0.44869 0.66472 0.0
C212 C 0.88407 0.44629 0.63537 0.0
C213 C 0.87331 0.44602 0.60836 0.0
C214 C 0.83536 0.44894 0.49915 0.0
C215 C 0.82612 0.44824 0.46804 0.0
C216 C 0.83656 0.44854 0.44129 0.0
C217 C 0.84595 0.44850 0.41768 0.0
C218 C 0.85668 0.44886 0.38788 0.0
C219 C 0.87546 0.44519 0.38754 0.0
C220 C 0.88575 0.44679 0.36026 0.0
C221 C 0.87547 0.44913 0.33156 0.0
C222 C 0.85577 0.45207 0.33321 0.0
C223 C 0.84632 0.45097 0.35917 0.0
H224 H 0.80112 0.44830 0.44753 0.0
H225 H 0.73266 0.45378 0.44851 0.0
H226 H 0.69905 0.45415 0.45247 0.0
H227 H 0.70607 0.44385 0.54313 0.0
H228 H 0.73831 0.44311 0.53899 0.0
H229 H 0.79729 0.44929 0.54228 0.0
H230 H 0.82926 0.45607 0.63516 0.0
H231 H 0.84708 0.45488 0.68682 0.0
H232 H 0.89731 0.44492 0.63433 0.0
H233 H 0.87943 0.44303 0.58914 0.0
H234 H 0.84848 0.44901 0.50004 0.0
H235 H 0.88205 0.44142 0.40623 0.0
H236 H 0.89894 0.44633 0.36091 0.0
H237 H 0.84883 0.45501 0.31457 0.0
H238 H 0.83310 0.45156 0.35882 0.0
C239 C 0.44852 0.80798 0.46732 0.0
C240 C 0.44844 0.79688 0.49351 0.0
C241 C 0.44899 0.77635 0.49448 0.0
C242 C 0.44882 0.75847 0.49496 0.0
C243 C 0.44930 0.73915 0.49431 0.0
C244 C 0.44546 0.72913 0.46769 0.0
C245 C 0.44498 0.70905 0.47007 0.0
C246 C 0.44761 0.70133 0.49871 0.0
C247 C 0.45110 0.71132 0.52370 0.0
C248 C 0.45168 0.73049 0.52102 0.0
C249 C 0.44771 0.80591 0.52420 0.0
C250 C 0.44724 0.82655 0.52750 0.0
C251 C 0.44639 0.83575 0.55677 0.0
C252 C 0.44560 0.84418 0.58095 0.0
C253 C 0.44678 0.85549 0.60899 0.0
C254 C 0.44324 0.84520 0.63616 0.0
C255 C 0.44386 0.85569 0.66733 0.0
C256 C 0.44799 0.87598 0.66473 0.0
C257 C 0.45037 0.88438 0.63546 0.0
C258 C 0.45067 0.87352 0.60846 0.0
C259 C 0.44782 0.83648 0.49917 0.0
C260 C 0.44855 0.82701 0.46807 0.0
C261 C 0.44822 0.83756 0.44132 0.0
C262 C 0.44825 0.84694 0.41771 0.0
C263 C 0.44786 0.85780 0.38789 0.0
C264 C 0.45148 0.87541 0.38766 0.0
C265 C 0.44986 0.88622 0.36033 0.0
C266 C 0.44755 0.87669 0.33156 0.0
C267 C 0.44465 0.85793 0.33313 0.0
C268 C 0.44577 0.84812 0.35912 0.0
H269 H 0.44854 0.80200 0.44756 0.0
H270 H 0.44320 0.73526 0.44838 0.0
H271 H 0.44290 0.70174 0.45234 0.0
H272 H 0.45319 0.70542 0.54329 0.0
H273 H 0.45386 0.73744 0.53917 0.0
H274 H 0.44756 0.79850 0.54229 0.0
H275 H 0.44070 0.83269 0.63497 0.0
H276 H 0.44187 0.85014 0.68666 0.0
H277 H 0.45171 0.89718 0.63446 0.0
H278 H 0.45364 0.87868 0.58933 0.0
H279 H 0.44773 0.84964 0.50005 0.0
H280 H 0.45525 0.88077 0.40646 0.0
H281 H 0.45030 0.89928 0.36100 0.0
H282 H 0.44173 0.85194 0.31440 0.0
H283 H 0.44521 0.83507 0.35876 0.0
H284 H 0.44872 0.53112 0.52246 0.0
H285 H 0.42755 0.50672 0.52056 0.0
H286 H 0.41299 0.54119 0.52281 0.0
H287 H 0.31968 0.53627 0.52157 0.0
H288 H 0.34085 0.56067 0.52346 0.0
H289 H 0.35542 0.52620 0.52122 0.0
H290 H 0.31943 0.53708 0.47993 0.0
H291 H 0.34060 0.56148 0.48183 0.0
H292 H 0.35517 0.52701 0.47958 0.0
H293 H 0.44848 0.53193 0.48082 0.0
H294 H 0.42731 0.50753 0.47893 0.0
H295 H 0.41274 0.54200 0.48118 0.0
C296 C 0.44769 0.52274 0.50102 0.0
C297 C 0.42848 0.51607 0.50038 0.0
C298 C 0.41188 0.53276 0.50137 0.0
C299 C 0.39246 0.52572 0.50070 0.0
C300 C 0.32047 0.54546 0.50137 0.0
C301 C 0.33968 0.55213 0.50202 0.0
C302 C 0.35628 0.53543 0.50102 0.0
C303 C 0.37570 0.54248 0.50170 0.0
H304 H 0.52991 0.45004 0.47996 0.0
H305 H 0.50547 0.42892 0.48028 0.0
H306 H 0.53992 0.41428 0.48029 0.0
H307 H 0.53483 0.32097 0.48129 0.0
H308 H 0.55927 0.34209 0.48096 0.0
H309 H 0.52482 0.35673 0.48096 0.0
H310 H 0.53509 0.32133 0.52296 0.0
H311 H 0.55953 0.34245 0.52263 0.0
H312 H 0.52508 0.35710 0.52263 0.0
H313 H 0.53017 0.45041 0.52163 0.0
H314 H 0.50573 0.42929 0.52196 0.0
H315 H 0.54017 0.41464 0.52196 0.0
C316 C 0.52125 0.44933 0.50084 0.0
C317 C 0.51455 0.43013 0.50107 0.0
C318 C 0.53121 0.41349 0.50117 0.0
C319 C 0.52414 0.39409 0.50141 0.0
C320 C 0.54375 0.32204 0.50208 0.0
C321 C 0.55045 0.34124 0.50185 0.0
C322 C 0.53378 0.35788 0.50174 0.0
C323 C 0.54086 0.37729 0.50151 0.0
H324 H 0.55542 0.47461 0.51954 0.0
H325 H 0.57663 0.49898 0.52072 0.0
H326 H 0.59116 0.46449 0.51928 0.0
H327 H 0.68449 0.46927 0.51997 0.0
H328 H 0.66328 0.44490 0.51879 0.0
H329 H 0.64876 0.47939 0.52023 0.0
H330 H 0.68424 0.46970 0.47831 0.0
H331 H 0.66303 0.44533 0.47713 0.0
H332 H 0.64851 0.47982 0.47857 0.0
H333 H 0.55517 0.47505 0.47788 0.0
H334 H 0.57638 0.49942 0.47906 0.0
H335 H 0.59091 0.46492 0.47762 0.0
C336 C 0.55622 0.48361 0.49910 0.0
C337 C 0.57545 0.49026 0.49949 0.0
C338 C 0.59203 0.47353 0.49884 0.0
C339 C 0.61146 0.48055 0.49925 0.0
C340 C 0.68344 0.46070 0.49875 0.0
C341 C 0.66421 0.45406 0.49836 0.0
C342 C 0.64763 0.47078 0.49901 0.0
C343 C 0.62820 0.46377 0.49860 0.0
H344 H 0.50831 0.56249 0.52087 0.0
H345 H 0.47344 0.57354 0.52058 0.0
H346 H 0.49530 0.59774 0.52041 0.0
H347 H 0.43340 0.67968 0.51919 0.0
H348 H 0.46828 0.66863 0.51948 0.0
H349 H 0.44642 0.64443 0.51965 0.0
H350 H 0.43328 0.67928 0.47752 0.0
H351 H 0.46816 0.66822 0.47781 0.0
H352 H 0.44630 0.64402 0.47798 0.0
H353 H 0.50819 0.56208 0.47920 0.0
H354 H 0.47332 0.57313 0.47891 0.0
H355 H 0.49518 0.59734 0.47874 0.0
C356 C 0.49983 0.56026 0.50002 0.0
C357 C 0.48203 0.57530 0.49976 0.0
C358 C 0.48673 0.59556 0.49956 0.0
C359 C 0.46847 0.61067 0.49930 0.0
C360 C 0.44176 0.68151 0.49837 0.0
C361 C 0.45957 0.66647 0.49862 0.0
C362 C 0.45486 0.64620 0.49883 0.0
C363 C 0.47313 0.63110 0.49909 0.0
C364 C 0.07342 0.53042 0.81628 0.0
N365 N 0.06345 0.53312 0.78365 0.0
N366 N 0.07440 0.53892 0.75493 0.0
C367 C 0.09532 0.54201 0.75879 0.0
N368 N 0.10534 0.53931 0.79144 0.0
N369 N 0.09438 0.53350 0.82020 0.0
C370 C 0.06245 0.52461 0.84500 0.0
C371 C 0.05166 0.51881 0.87391 0.0
C372 C 0.10613 0.54781 0.72990 0.0
C373 C 0.11685 0.55360 0.70090 0.0
C374 C 0.52865 0.07480 0.81624 0.0
N375 N 0.51696 0.09428 0.80691 0.0
N376 N 0.52283 0.10505 0.77803 0.0
C377 C 0.54040 0.09634 0.75845 0.0
N378 N 0.55213 0.07683 0.76775 0.0
N379 N 0.54625 0.06605 0.79666 0.0
C380 C 0.52275 0.06404 0.84514 0.0
C381 C 0.51702 0.05313 0.87397 0.0
C382 C 0.54615 0.10723 0.72961 0.0
C383 C 0.55181 0.11821 0.70080 0.0
C384 C 0.93063 0.47541 0.18418 0.0
N385 N 0.91876 0.45906 0.18136 0.0
N386 N 0.90794 0.45337 0.21031 0.0
C387 C 0.90898 0.46402 0.24210 0.0
N388 N 0.92086 0.48040 0.24498 0.0
N389 N 0.93169 0.48610 0.21600 0.0
C390 C 0.94144 0.48109 0.15519 0.0
C391 C 0.95232 0.48693 0.12640 0.0
C392 C 0.89810 0.45821 0.27091 0.0
C393 C 0.88719 0.45232 0.29961 0.0
C394 C 0.47380 0.93192 0.18419 0.0
N395 N 0.46522 0.91343 0.17951 0.0
N396 N 0.45949 0.90264 0.20847 0.0
C397 C 0.46234 0.91033 0.24213 0.0
N398 N 0.47092 0.92885 0.24688 0.0
N399 N 0.47665 0.93965 0.21788 0.0
C400 C 0.47951 0.94270 0.15518 0.0
C401 C 0.48529 0.95364 0.12640 0.0
C402 C 0.45656 0.89942 0.27094 0.0
C403 C 0.45075 0.88844 0.29963 0.0
C404 C 0.52861 0.07517 0.18715 0.0
N405 N 0.54988 0.07555 0.19470 0.0
N406 N 0.55554 0.08649 0.22411 0.0
C407 C 0.53994 0.09707 0.24599 0.0
N408 N 0.51863 0.09671 0.23848 0.0
N409 N 0.51297 0.08576 0.20904 0.0
C410 C 0.52297 0.06421 0.15771 0.0
C411 C 0.51713 0.05331 0.12837 0.0
C412 C 0.54576 0.10797 0.27534 0.0
C413 C 0.55169 0.11884 0.30465 0.0
C414 C 0.07374 0.53040 0.18715 0.0
N415 N 0.06700 0.54964 0.20418 0.0
N416 N 0.07797 0.55532 0.23352 0.0
C417 C 0.09571 0.54178 0.24586 0.0
N418 N 0.10249 0.52251 0.22884 0.0
N419 N 0.09150 0.51682 0.19947 0.0
C420 C 0.06274 0.52473 0.15779 0.0
C421 C 0.05188 0.51888 0.12840 0.0
C422 C 0.10659 0.54761 0.27523 0.0
C423 C 0.11739 0.55354 0.30461 0.0
C424 C 0.93032 0.47533 0.81320 0.0
N425 N 0.91020 0.48617 0.80504 0.0
N426 N 0.89938 0.48031 0.77565 0.0
C427 C 0.90866 0.46361 0.75439 0.0
N428 N 0.92880 0.45274 0.76251 0.0
N429 N 0.93963 0.45860 0.79194 0.0
C430 C 0.94112 0.48122 0.84263 0.0
C431 C 0.95209 0.48694 0.87198 0.0
C432 C 0.89771 0.45786 0.72504 0.0
C433 C 0.88667 0.45220 0.69573 0.0
C434 C 0.47370 0.93157 0.81326 0.0
N435 N 0.48914 0.92098 0.79107 0.0
N436 N 0.48327 0.91008 0.76177 0.0
C437 C 0.46196 0.90977 0.75461 0.0
N438 N 0.44647 0.92037 0.77679 0.0
N439 N 0.45235 0.93128 0.80613 0.0
C440 C 0.47960 0.94247 0.84258 0.0
C441 C 0.48528 0.95343 0.87197 0.0
C442 C 0.45625 0.89883 0.72523 0.0
C443 C 0.45065 0.88785 0.69580 0.0
