data_{}
_symmetry_space_group_name_H-M    P1
_symmetry_Int_Tables_number       1
_symmetry_cell_setting            triclinic
loop_
_symmetry_equiv_pos_as_xyz
'x, y, z'
_cell_length_a     87.332
_cell_length_b     83.895
_cell_length_c     38.649
_cell_angle_alpha  90.040
_cell_angle_beta   90.091
_cell_angle_gamma  120.258
loop_
_atom_site_label
_atom_site_type_symbol
_atom_site_fract_x
_atom_site_fract_y
_atom_site_fract_z
_atom_type_partial_charge
C0 C 0.93723 0.89152 0.00189 0.0
C1 C 0.94309 0.90372 0.03457 0.0
C2 C 0.95861 0.92374 0.03251 0.0
C3 C 0.96467 0.93610 0.06500 0.0
C4 C 0.98024 0.95610 0.06268 0.0
C5 C 0.98972 0.96366 0.02793 0.0
C6 C 0.98363 0.95133 0.99546 0.0
C7 C 0.96808 0.93136 0.99777 0.0
C8 C 0.00729 0.99423 0.05788 0.0
C9 C 0.02141 0.01387 0.04745 0.0
C10 C 0.04117 0.01996 0.05045 0.0
C11 C 0.05505 0.03822 0.03378 0.0
C12 C 0.04940 0.05134 0.01801 0.0
C13 C 0.02974 0.04593 0.01806 0.0
C14 C 0.01573 0.02715 0.03275 0.0
C15 C 0.99592 0.02105 0.03021 0.0
C16 C 0.04686 0.00712 0.06744 0.0
C17 C 0.06337 0.06953 0.00112 0.0
C18 C 0.07457 0.04333 0.03239 0.0
C19 C 0.09734 0.04704 0.99059 0.0
C20 C 0.10993 0.05405 0.02195 0.0
C21 C 0.12992 0.06174 0.01683 0.0
C22 C 0.13727 0.06240 0.98035 0.0
C23 C 0.12464 0.05523 0.94902 0.0
C24 C 0.10465 0.04755 0.95415 0.0
C25 C 0.15729 0.07027 0.97532 0.0
C26 C 0.16984 0.07748 0.00677 0.0
C27 C 0.02389 0.05873 0.00168 0.0
C28 C 0.01896 0.08418 0.01682 0.0
C29 C 0.01313 0.08330 0.97893 0.0
C30 C 0.00324 0.09335 0.96801 0.0
C31 C 0.99990 0.10420 0.99503 0.0
C32 C 0.00506 0.10510 0.03289 0.0
C33 C 0.01497 0.09508 0.04380 0.0
C34 C 0.98914 0.11412 0.98434 0.0
C35 C 0.98501 0.12479 0.01164 0.0
O36 O 0.00483 0.98326 0.02532 0.0
O37 O 0.02786 0.07361 0.02791 0.0
O38 O 0.07787 0.04008 0.99547 0.0
H39 H 0.94438 0.89735 0.97633 0.0
H40 H 0.93598 0.89794 0.06018 0.0
H41 H 0.95764 0.93046 0.09072 0.0
H42 H 0.98474 0.96529 0.08666 0.0
H43 H 0.99063 0.95700 0.96973 0.0
H44 H 0.96358 0.92221 0.97376 0.0
H45 H 0.01215 0.98896 0.08006 0.0
H46 H 0.99444 0.99381 0.06513 0.0
H47 H 0.99424 0.03101 0.01275 0.0
H48 H 0.99054 0.02105 0.05707 0.0
H49 H 0.98835 0.00655 0.01878 0.0
H50 H 0.03520 0.99235 0.06748 0.0
H51 H 0.05119 0.01180 0.09525 0.0
H52 H 0.05840 0.00773 0.05255 0.0
H53 H 0.05657 0.07682 0.98935 0.0
H54 H 0.07052 0.06633 0.97997 0.0
H55 H 0.07339 0.07881 0.02146 0.0
H56 H 0.08345 0.05850 0.03948 0.0
H57 H 0.07710 0.03425 0.05069 0.0
H58 H 0.10446 0.05362 0.04892 0.0
H59 H 0.13928 0.06698 0.04001 0.0
H60 H 0.13009 0.05566 0.92203 0.0
H61 H 0.09528 0.04230 0.93096 0.0
H62 H 0.16282 0.07078 0.94837 0.0
H63 H 0.16427 0.07695 0.03367 0.0
H64 H 0.03137 0.06506 0.97662 0.0
H65 H 0.00902 0.05052 0.99635 0.0
H66 H 0.01603 0.07513 0.95908 0.0
H67 H 0.99887 0.09271 0.93998 0.0
H68 H 0.00202 0.11314 0.05284 0.0
H69 H 0.01923 0.09562 0.07185 0.0
H70 H 0.98476 0.11355 0.95635 0.0
H71 H 0.98941 0.12532 0.03961 0.0
C72 C 0.83646 0.37503 0.77860 0.0
C73 C 0.82405 0.35792 0.80026 0.0
C74 C 0.83147 0.35265 0.83160 0.0
C75 C 0.81924 0.33554 0.85346 0.0
C76 C 0.82680 0.33036 0.88472 0.0
C77 C 0.84658 0.34228 0.89400 0.0
C78 C 0.85878 0.35940 0.87222 0.0
C79 C 0.85123 0.36458 0.84100 0.0
C80 C 0.83991 0.32212 0.94626 0.0
C81 C 0.85026 0.32148 0.97781 0.0
C82 C 0.85944 0.30996 0.97647 0.0
C83 C 0.87255 0.31222 0.00529 0.0
C84 C 0.87480 0.32417 0.03729 0.0
C85 C 0.86425 0.33430 0.04001 0.0
C86 C 0.85199 0.33297 0.01019 0.0
C87 C 0.84259 0.34432 0.01154 0.0
C88 C 0.85666 0.29744 0.94503 0.0
C89 C 0.88806 0.32648 0.06589 0.0
C90 C 0.88364 0.30277 0.00205 0.0
C91 C 0.91447 0.31027 0.99351 0.0
C92 C 0.90703 0.28950 0.99990 0.0
C93 C 0.91973 0.28183 0.00118 0.0
C94 C 0.93983 0.29493 0.99731 0.0
C95 C 0.94726 0.31569 0.99124 0.0
C96 C 0.93456 0.32337 0.98935 0.0
C97 C 0.95249 0.28722 0.99990 0.0
C98 C 0.94497 0.26646 0.00579 0.0
C99 C 0.86669 0.34661 0.07146 0.0
C100 C 0.85436 0.34511 0.12913 0.0
C101 C 0.86780 0.36592 0.13154 0.0
C102 C 0.86586 0.37758 0.16008 0.0
C103 C 0.85046 0.36840 0.18605 0.0
C104 C 0.83706 0.34757 0.18366 0.0
C105 C 0.83902 0.33591 0.15517 0.0
C106 C 0.84835 0.38001 0.21441 0.0
C107 C 0.83281 0.37071 0.24005 0.0
O108 O 0.85406 0.33745 0.92474 0.0
O109 O 0.85572 0.33386 0.10022 0.0
O110 O 0.90209 0.31786 0.99279 0.0
H111 H 0.85108 0.38373 0.78586 0.0
H112 H 0.80943 0.34918 0.79308 0.0
H113 H 0.80460 0.32672 0.84651 0.0
H114 H 0.81778 0.31772 0.90098 0.0
H115 H 0.87341 0.36824 0.87925 0.0
H116 H 0.86026 0.37723 0.82483 0.0
H117 H 0.83352 0.30848 0.93151 0.0
H118 H 0.82950 0.32571 0.95464 0.0
H119 H 0.84817 0.35453 0.03396 0.0
H120 H 0.82775 0.33470 0.01539 0.0
H121 H 0.84496 0.35216 0.98620 0.0
H122 H 0.85171 0.30213 0.92206 0.0
H123 H 0.84637 0.28259 0.95182 0.0
H124 H 0.86966 0.29816 0.93801 0.0
H125 H 0.88856 0.33654 0.08633 0.0
H126 H 0.90176 0.33210 0.05395 0.0
H127 H 0.88375 0.31254 0.07834 0.0
H128 H 0.88384 0.29630 0.02786 0.0
H129 H 0.87806 0.29179 0.98088 0.0
H130 H 0.89214 0.27983 0.00229 0.0
H131 H 0.91425 0.26646 0.00553 0.0
H132 H 0.96214 0.32538 0.98825 0.0
H133 H 0.94002 0.33875 0.98501 0.0
H134 H 0.96739 0.29686 0.99669 0.0
H135 H 0.93006 0.25686 0.00864 0.0
H136 H 0.88121 0.35495 0.07955 0.0
H137 H 0.86154 0.35631 0.06478 0.0
H138 H 0.87909 0.37269 0.11208 0.0
H139 H 0.87576 0.39301 0.16190 0.0
H140 H 0.82567 0.34081 0.20292 0.0
H141 H 0.82905 0.32052 0.15320 0.0
H142 H 0.85823 0.39544 0.21641 0.0
H143 H 0.82296 0.35528 0.23795 0.0
C144 C 0.55840 0.22001 0.23483 0.0
C145 C 0.55415 0.20287 0.21306 0.0
C146 C 0.54164 0.19768 0.18168 0.0
C147 C 0.53721 0.18054 0.15970 0.0
C148 C 0.52464 0.17543 0.12840 0.0
C149 C 0.51652 0.18745 0.11920 0.0
C150 C 0.52099 0.20461 0.14109 0.0
C151 C 0.53354 0.20970 0.17235 0.0
C152 C 0.50358 0.16732 0.06681 0.0
C153 C 0.49266 0.16676 0.03524 0.0
C154 C 0.47231 0.15535 0.03650 0.0
C155 C 0.46145 0.15770 0.00769 0.0
C156 C 0.47083 0.16963 0.97577 0.0
C157 C 0.49117 0.17964 0.97312 0.0
C158 C 0.50210 0.17823 0.00294 0.0
C159 C 0.52249 0.18946 0.00167 0.0
C160 C 0.46292 0.14285 0.06786 0.0
C161 C 0.45986 0.17203 0.94718 0.0
C162 C 0.44122 0.14836 0.01086 0.0
C163 C 0.41779 0.15606 0.01944 0.0
C164 C 0.40503 0.13531 0.01353 0.0
C165 C 0.38492 0.12776 0.01157 0.0
C166 C 0.37761 0.14096 0.01553 0.0
C167 C 0.39039 0.16170 0.02173 0.0
C168 C 0.41049 0.16926 0.02368 0.0
C169 C 0.35751 0.13337 0.01321 0.0
C170 C 0.34484 0.11263 0.00685 0.0
C171 C 0.50071 0.19193 0.94176 0.0
C172 C 0.51154 0.19034 0.88408 0.0
C173 C 0.51837 0.21118 0.88181 0.0
C174 C 0.53163 0.22279 0.85336 0.0
C175 C 0.53806 0.21352 0.82733 0.0
C176 C 0.53118 0.19268 0.82958 0.0
C177 C 0.51790 0.18107 0.85799 0.0
C178 C 0.55145 0.22508 0.79904 0.0
C179 C 0.55789 0.21570 0.77335 0.0
O180 O 0.50437 0.18269 0.08842 0.0
O181 O 0.49925 0.17914 0.91291 0.0
O182 O 0.43749 0.16353 0.02022 0.0
H183 H 0.55229 0.22878 0.22762 0.0
H184 H 0.56023 0.19405 0.22018 0.0
H185 H 0.54322 0.17164 0.16660 0.0
H186 H 0.52136 0.16278 0.11206 0.0
H187 H 0.51501 0.21352 0.13412 0.0
H188 H 0.53684 0.22238 0.18861 0.0
H189 H 0.49670 0.15368 0.08146 0.0
H190 H 0.51745 0.17083 0.05845 0.0
H191 H 0.52684 0.19968 0.97932 0.0
H192 H 0.52794 0.17977 0.99776 0.0
H193 H 0.52774 0.19730 0.02707 0.0
H194 H 0.47241 0.14749 0.09086 0.0
H195 H 0.45876 0.12798 0.06097 0.0
H196 H 0.45066 0.14366 0.07487 0.0
H197 H 0.46914 0.18205 0.92681 0.0
H198 H 0.45167 0.17773 0.95915 0.0
H199 H 0.45060 0.15810 0.93463 0.0
H200 H 0.43474 0.14192 0.98501 0.0
H201 H 0.43612 0.13738 0.03196 0.0
H202 H 0.41047 0.12557 0.01046 0.0
H203 H 0.37544 0.11240 0.00712 0.0
H204 H 0.38496 0.17147 0.02478 0.0
H205 H 0.41999 0.18462 0.02813 0.0
H206 H 0.35202 0.14308 0.01614 0.0
H207 H 0.35037 0.10296 0.00393 0.0
H208 H 0.49434 0.20034 0.93372 0.0
H209 H 0.51527 0.20156 0.94851 0.0
H210 H 0.51370 0.21801 0.90132 0.0
H211 H 0.53675 0.23823 0.85164 0.0
H212 H 0.53596 0.18586 0.81028 0.0
H213 H 0.51287 0.16566 0.85985 0.0
H214 H 0.55659 0.24053 0.79716 0.0
H215 H 0.55272 0.20026 0.77535 0.0
C216 C 0.67707 0.48720 0.77532 0.0
C217 C 0.69324 0.49064 0.79710 0.0
C218 C 0.69889 0.50374 0.82845 0.0
C219 C 0.71508 0.50737 0.85044 0.0
C220 C 0.72065 0.52055 0.88170 0.0
C221 C 0.71006 0.53008 0.89085 0.0
C222 C 0.69386 0.52641 0.86895 0.0
C223 C 0.68829 0.51325 0.83773 0.0
C224 C 0.72959 0.54266 0.94324 0.0
C225 C 0.73084 0.55438 0.97476 0.0
C226 C 0.74278 0.57547 0.97345 0.0
C227 C 0.74133 0.58731 0.00222 0.0
C228 C 0.72966 0.57805 0.03415 0.0
C229 C 0.71903 0.55686 0.03685 0.0
C230 C 0.71960 0.54502 0.00707 0.0
C231 C 0.70783 0.52386 0.00840 0.0
C232 C 0.75498 0.58471 0.94208 0.0
C233 C 0.72818 0.59001 0.06270 0.0
C234 C 0.75134 0.60842 0.99899 0.0
C235 C 0.74576 0.63410 0.99031 0.0
C236 C 0.76584 0.64643 0.99621 0.0
C237 C 0.77419 0.66752 0.99811 0.0
C238 C 0.76243 0.67625 0.99411 0.0
C239 C 0.74236 0.66391 0.98791 0.0
C240 C 0.73402 0.64281 0.98602 0.0
C241 C 0.77081 0.69734 0.99637 0.0
C242 C 0.79088 0.70957 0.00272 0.0
C243 C 0.70701 0.54745 0.06823 0.0
C244 C 0.70777 0.53575 0.12595 0.0
C245 C 0.68801 0.52980 0.12820 0.0
C246 C 0.67637 0.51634 0.15669 0.0
C247 C 0.68453 0.50883 0.18276 0.0
C248 C 0.70431 0.51483 0.18051 0.0
C249 C 0.71595 0.52831 0.15208 0.0
C250 C 0.67294 0.49524 0.21107 0.0
C251 C 0.68121 0.48770 0.23680 0.0
O252 O 0.71529 0.54283 0.92159 0.0
O253 O 0.71897 0.54819 0.09709 0.0
O254 O 0.73753 0.61343 0.98959 0.0
H255 H 0.66934 0.49436 0.78248 0.0
H256 H 0.70100 0.48352 0.79002 0.0
H257 H 0.72292 0.50032 0.84357 0.0
H258 H 0.73261 0.52324 0.89805 0.0
H259 H 0.68599 0.53344 0.87588 0.0
H260 H 0.67632 0.51055 0.82146 0.0
H261 H 0.74269 0.54914 0.92858 0.0
H262 H 0.72542 0.52800 0.95163 0.0
H263 H 0.69807 0.51988 0.03075 0.0
H264 H 0.71645 0.51737 0.01234 0.0
H265 H 0.70021 0.51873 0.98300 0.0
H266 H 0.75005 0.57482 0.91910 0.0
H267 H 0.76904 0.58819 0.94898 0.0
H268 H 0.75505 0.59793 0.93502 0.0
H269 H 0.71827 0.58072 0.08308 0.0
H270 H 0.72344 0.59918 0.05068 0.0
H271 H 0.74171 0.59903 0.07523 0.0
H272 H 0.75774 0.61496 0.02483 0.0
H273 H 0.76184 0.61316 0.97789 0.0
H274 H 0.77451 0.63993 0.99990 0.0
H275 H 0.78905 0.67668 0.00256 0.0
H276 H 0.73367 0.67039 0.98482 0.0
H277 H 0.71914 0.63363 0.98158 0.0
H278 H 0.76218 0.70388 0.99339 0.0
H279 H 0.79947 0.70299 0.00567 0.0
H280 H 0.69964 0.55486 0.07623 0.0
H281 H 0.69711 0.53246 0.06151 0.0
H282 H 0.68198 0.53526 0.10867 0.0
H283 H 0.66172 0.51188 0.15840 0.0
H284 H 0.71032 0.50925 0.19985 0.0
H285 H 0.73056 0.53268 0.15023 0.0
H286 H 0.65828 0.49074 0.21295 0.0
H287 H 0.69587 0.49222 0.23482 0.0
C288 C 0.74085 0.39581 0.53876 0.0
C289 C 0.72528 0.38585 0.51963 0.0
C290 C 0.68989 0.38063 0.56047 0.0
C291 C 0.68043 0.38482 0.58497 0.0
C292 C 0.72033 0.39257 0.48804 0.0
C293 C 0.73021 0.40940 0.47286 0.0
C294 C 0.69899 0.38332 0.44408 0.0
C295 C 0.70886 0.40004 0.42642 0.0
C296 C 0.66213 0.37650 0.58028 0.0
C297 C 0.72464 0.41345 0.44117 0.0
C298 C 0.65682 0.35075 0.49650 0.0
C299 C 0.65395 0.36515 0.55202 0.0
C300 C 0.66394 0.36189 0.52807 0.0
C301 C 0.66968 0.33216 0.56152 0.0
C302 C 0.65959 0.31509 0.57688 0.0
C303 C 0.65854 0.29948 0.56137 0.0
C304 C 0.66803 0.30202 0.53062 0.0
C305 C 0.67818 0.31962 0.51625 0.0
C306 C 0.68980 0.32403 0.48593 0.0
N307 N 0.71330 0.36819 0.52819 0.0
C308 C 0.69310 0.31152 0.46795 0.0
C309 C 0.71551 0.33637 0.43465 0.0
C310 C 0.71130 0.34843 0.45181 0.0
C311 C 0.70590 0.31769 0.44224 0.0
N312 N 0.70437 0.37950 0.47418 0.0
Co313 Co 0.69138 0.35740 0.50279 0.0
N314 N 0.67884 0.33482 0.53143 0.0
N315 N 0.69843 0.34231 0.47617 0.0
H316 H 0.70829 0.34750 0.55934 0.0
H317 H 0.75394 0.39370 0.58053 0.0
H318 H 0.74905 0.40795 0.53309 0.0
H319 H 0.74066 0.41828 0.48333 0.0
H320 H 0.73143 0.42486 0.43055 0.0
H321 H 0.68821 0.37445 0.43472 0.0
N322 N 0.66887 0.34830 0.47789 0.0
N323 N 0.68203 0.36945 0.53319 0.0
H324 H 0.67171 0.33707 0.43456 0.0
H325 H 0.62284 0.32942 0.44591 0.0
H326 H 0.63144 0.34476 0.49888 0.0
H327 H 0.64177 0.35973 0.54907 0.0
H328 H 0.65536 0.37858 0.59629 0.0
H329 H 0.70209 0.38582 0.56329 0.0
C330 C 0.66363 0.33896 0.44699 0.0
H331 H 0.67027 0.34238 0.57220 0.0
H332 H 0.65178 0.28784 0.57108 0.0
H333 H 0.66759 0.29192 0.51976 0.0
H334 H 0.68668 0.29902 0.47328 0.0
H335 H 0.70801 0.30938 0.43018 0.0
H336 H 0.71753 0.36093 0.44638 0.0
C337 C 0.64663 0.33221 0.43357 0.0
C338 C 0.63445 0.33424 0.45370 0.0
C339 C 0.63958 0.34350 0.48543 0.0
C340 C 0.71654 0.35974 0.55437 0.0
C341 C 0.73198 0.36884 0.57433 0.0
C342 C 0.74388 0.38711 0.56693 0.0
C343 C 0.80554 0.36351 0.72503 0.0
C344 C 0.80244 0.37518 0.69894 0.0
C345 C 0.78333 0.36517 0.68656 0.0
C346 C 0.75921 0.37865 0.61986 0.0
C347 C 0.76161 0.36787 0.64795 0.0
C348 C 0.78046 0.37639 0.65945 0.0
N349 N 0.82366 0.37253 0.73598 0.0
H350 H 0.83113 0.37000 0.72448 0.0
N351 N 0.74102 0.37032 0.60838 0.0
H352 H 0.73412 0.37431 0.61776 0.0
H353 H 0.79798 0.36122 0.74495 0.0
H354 H 0.80236 0.35170 0.71464 0.0
H355 H 0.80519 0.38680 0.70954 0.0
H356 H 0.81026 0.37781 0.67931 0.0
H357 H 0.78042 0.35330 0.67690 0.0
H358 H 0.77554 0.36301 0.70605 0.0
H359 H 0.76311 0.39104 0.62818 0.0
H360 H 0.76662 0.37965 0.60034 0.0
H361 H 0.75756 0.35545 0.63970 0.0
H362 H 0.75432 0.36703 0.66760 0.0
H363 H 0.78429 0.38858 0.66876 0.0
H364 H 0.78779 0.37785 0.63956 0.0
C365 C 0.58885 0.25046 0.27039 0.0
C366 C 0.59179 0.25378 0.30916 0.0
C367 C 0.60382 0.27417 0.31684 0.0
C368 C 0.62237 0.30013 0.40251 0.0
C369 C 0.61819 0.29731 0.36474 0.0
C370 C 0.60740 0.27737 0.35524 0.0
N371 N 0.57802 0.23123 0.26277 0.0
H372 H 0.58345 0.22475 0.25830 0.0
N373 N 0.63298 0.31941 0.41172 0.0
H374 H 0.62743 0.32529 0.41946 0.0
H375 H 0.58320 0.25703 0.26152 0.0
H376 H 0.60023 0.25527 0.25896 0.0
H377 H 0.58048 0.24940 0.32053 0.0
H378 H 0.59711 0.24691 0.31821 0.0
H379 H 0.61494 0.27869 0.30462 0.0
H380 H 0.59827 0.28098 0.30866 0.0
H381 H 0.61138 0.29467 0.41551 0.0
H382 H 0.62868 0.29382 0.40905 0.0
H383 H 0.62917 0.30291 0.35178 0.0
H384 H 0.61172 0.30348 0.35831 0.0
H385 H 0.59617 0.27193 0.36736 0.0
H386 H 0.61358 0.27110 0.36285 0.0
C387 C 0.57612 0.24433 0.71653 0.0
C388 C 0.59390 0.24898 0.70102 0.0
C389 C 0.60202 0.26715 0.68160 0.0
C390 C 0.64510 0.29315 0.62936 0.0
C391 C 0.62857 0.28969 0.64731 0.0
C392 C 0.61929 0.27135 0.66484 0.0
N393 N 0.56805 0.22691 0.73389 0.0
H394 H 0.56046 0.21679 0.72183 0.0
N395 N 0.65400 0.31080 0.61202 0.0
H396 H 0.66283 0.32048 0.62323 0.0
H397 H 0.57785 0.25390 0.73279 0.0
H398 H 0.56830 0.24395 0.69827 0.0
H399 H 0.60187 0.24980 0.71933 0.0
H400 H 0.59224 0.23922 0.68529 0.0
H401 H 0.59382 0.26652 0.66398 0.0
H402 H 0.60414 0.27699 0.69755 0.0
H403 H 0.65313 0.29269 0.64618 0.0
H404 H 0.64216 0.28344 0.61252 0.0
H405 H 0.62063 0.29032 0.63054 0.0
H406 H 0.63156 0.29932 0.66440 0.0
H407 H 0.62705 0.27098 0.68241 0.0
H408 H 0.61691 0.26181 0.64799 0.0
C409 C 0.68572 0.47244 0.30103 0.0
C410 C 0.68470 0.45380 0.29969 0.0
C411 C 0.68932 0.44906 0.33462 0.0
C412 C 0.69303 0.40747 0.36441 0.0
C413 C 0.69236 0.42487 0.36703 0.0
C414 C 0.68911 0.43094 0.33285 0.0
N415 N 0.68198 0.47734 0.26794 0.0
H416 H 0.69115 0.48420 0.25378 0.0
N417 N 0.69639 0.40167 0.39737 0.0
H418 H 0.68707 0.39336 0.40981 0.0
H419 H 0.67728 0.47197 0.31784 0.0
H420 H 0.69750 0.48181 0.30846 0.0
H421 H 0.67282 0.44436 0.29310 0.0
H422 H 0.69287 0.45413 0.28237 0.0
H423 H 0.70100 0.45879 0.34170 0.0
H424 H 0.68084 0.44822 0.35174 0.0
H425 H 0.68184 0.39773 0.35524 0.0
H426 H 0.70229 0.40931 0.34829 0.0
H427 H 0.70349 0.43454 0.37647 0.0
H428 H 0.68297 0.42296 0.38291 0.0
H429 H 0.67769 0.42152 0.32400 0.0
H430 H 0.69811 0.43218 0.31668 0.0
C431 C 0.67211 0.46581 0.70589 0.0
C432 C 0.67423 0.44895 0.70925 0.0
C433 C 0.67832 0.44363 0.67438 0.0
C434 C 0.68511 0.40354 0.64750 0.0
C435 C 0.68483 0.42115 0.64443 0.0
C436 C 0.67961 0.42638 0.67743 0.0
N437 N 0.66765 0.47056 0.73838 0.0
H438 H 0.65610 0.46587 0.74337 0.0
N439 N 0.68995 0.39832 0.61549 0.0
H440 H 0.70136 0.40158 0.61229 0.0
H441 H 0.68309 0.47613 0.69749 0.0
H442 H 0.66286 0.46328 0.68913 0.0
H443 H 0.68375 0.45161 0.72534 0.0
H444 H 0.66338 0.43871 0.71834 0.0
H445 H 0.66906 0.44152 0.65799 0.0
H446 H 0.68944 0.45368 0.66575 0.0
H447 H 0.69350 0.40490 0.66538 0.0
H448 H 0.67347 0.39375 0.65453 0.0
H449 H 0.67656 0.41982 0.62635 0.0
H450 H 0.69653 0.43097 0.63772 0.0
H451 H 0.68824 0.42830 0.69519 0.0
H452 H 0.66823 0.41627 0.68476 0.0
C453 C 0.81502 0.38087 0.30655 0.0
C454 C 0.79698 0.36388 0.31307 0.0
C455 C 0.78601 0.36844 0.33717 0.0
C456 C 0.73957 0.33802 0.37552 0.0
C457 C 0.75648 0.35519 0.36662 0.0
C458 C 0.76841 0.35137 0.34492 0.0
N459 N 0.82571 0.37659 0.28482 0.0
H460 H 0.83309 0.37346 0.29500 0.0
N461 N 0.72809 0.34165 0.39687 0.0
H462 H 0.71956 0.34295 0.38647 0.0
H463 H 0.81340 0.39032 0.29567 0.0
H464 H 0.82104 0.38568 0.32849 0.0
H465 H 0.79077 0.35932 0.29127 0.0
H466 H 0.79858 0.35426 0.32330 0.0
H467 H 0.79246 0.37352 0.35859 0.0
H468 H 0.78399 0.37768 0.32650 0.0
H469 H 0.73336 0.33200 0.35434 0.0
H470 H 0.74229 0.32961 0.38763 0.0
H471 H 0.76260 0.36127 0.38781 0.0
H472 H 0.75375 0.36351 0.35421 0.0
H473 H 0.76249 0.34584 0.32325 0.0
H474 H 0.77058 0.34252 0.35679 0.0
C475 C 0.99430 0.16170 0.00791 0.0
C476 C 0.99352 0.17962 0.00940 0.0
C477 C 0.97550 0.17876 0.00789 0.0
C478 C 0.95826 0.15997 0.00505 0.0
C479 C 0.95904 0.14205 0.00363 0.0
C480 C 0.97706 0.14291 0.00502 0.0
N481 N 0.97473 0.19669 0.00911 0.0
N482 N 0.95672 0.19586 0.00720 0.0
C483 C 0.95602 0.21384 0.00745 0.0
C484 C 0.93805 0.21305 0.00507 0.0
C485 C 0.93737 0.23105 0.00502 0.0
C486 C 0.95466 0.24982 0.00746 0.0
C487 C 0.97262 0.25060 0.01002 0.0
C488 C 0.97330 0.23261 0.01003 0.0
H489 H 0.00765 0.16234 0.00896 0.0
H490 H 0.00628 0.19353 0.01161 0.0
H491 H 0.94491 0.15933 0.00401 0.0
H492 H 0.94627 0.12814 0.00155 0.0
H493 H 0.92525 0.19916 0.00334 0.0
H494 H 0.92407 0.23047 0.00317 0.0
H495 H 0.98541 0.26449 0.01192 0.0
H496 H 0.98659 0.23318 0.01195 0.0
C497 C 0.19844 0.07410 0.97224 0.0
C498 C 0.21665 0.07548 0.96921 0.0
C499 C 0.23134 0.08690 0.99574 0.0
C500 C 0.22778 0.09688 0.02539 0.0
C501 C 0.20956 0.09547 0.02846 0.0
C502 C 0.19489 0.08409 0.00186 0.0
N503 N 0.24959 0.08840 0.99254 0.0
N504 N 0.26436 0.10000 0.01883 0.0
C505 C 0.28276 0.10189 0.01502 0.0
C506 C 0.29762 0.11369 0.04099 0.0
C507 C 0.31606 0.11570 0.03699 0.0
C508 C 0.31962 0.10588 0.00707 0.0
C509 C 0.30473 0.09401 0.98120 0.0
C510 C 0.28630 0.09202 0.98519 0.0
H511 H 0.18758 0.06567 0.95256 0.0
H512 H 0.21926 0.06805 0.94732 0.0
H513 H 0.23864 0.10531 0.04508 0.0
H514 H 0.20693 0.10284 0.05043 0.0
H515 H 0.29497 0.12092 0.06320 0.0
H516 H 0.32707 0.12447 0.05617 0.0
H517 H 0.30735 0.08670 0.95910 0.0
H518 H 0.27528 0.08322 0.96605 0.0
C519 C 0.92060 0.84879 0.99766 0.0
C520 C 0.90555 0.82850 0.99645 0.0
C521 C 0.88615 0.82371 0.00010 0.0
C522 C 0.88179 0.83922 0.00523 0.0
C523 C 0.89684 0.85951 0.00637 0.0
C524 C 0.91625 0.86429 0.00262 0.0
N525 N 0.87111 0.80342 0.99990 0.0
N526 N 0.85171 0.79860 0.00365 0.0
C527 C 0.83673 0.77827 0.00367 0.0
C528 C 0.81734 0.77340 0.00840 0.0
C529 C 0.80239 0.75306 0.00872 0.0
C530 C 0.80682 0.73758 0.00419 0.0
C531 C 0.82620 0.74245 0.99990 0.0
C532 C 0.84115 0.76279 0.99990 0.0
H533 H 0.93498 0.85233 0.99486 0.0
H534 H 0.90878 0.81703 0.99271 0.0
H535 H 0.86742 0.83568 0.00803 0.0
H536 H 0.89361 0.87098 0.00999 0.0
H537 H 0.81406 0.78486 0.01166 0.0
H538 H 0.78804 0.74945 0.01231 0.0
H539 H 0.82948 0.73101 0.99585 0.0
H540 H 0.85549 0.76640 0.99535 0.0
