data_{}
_symmetry_space_group_name_H-M    P1
_symmetry_Int_Tables_number       1
_symmetry_cell_setting            triclinic
loop_
_symmetry_equiv_pos_as_xyz
'x, y, z'
_cell_length_a     50.979
_cell_length_b     48.840
_cell_length_c     62.326
_cell_angle_alpha  89.334
_cell_angle_beta   91.153
_cell_angle_gamma  89.390
loop_
_atom_site_label
_atom_site_type_symbol
_atom_site_fract_x
_atom_site_fract_y
_atom_site_fract_z
_atom_type_partial_charge
H0 H 0.01220 0.06471 0.02457 0.0
H1 H 0.99157 0.05793 0.00630 0.0
C2 C 0.04276 0.05174 0.99314 0.0
C3 C 0.02459 0.03271 0.00546 0.0
H4 H 0.03040 0.00156 0.02808 0.0
H5 H 0.05595 0.00771 0.01515 0.0
C6 C 0.01079 0.01311 0.99005 0.0
O7 O 0.02785 0.06306 0.97540 0.0
C8 C 0.00390 0.04999 0.01673 0.0
O9 O 0.03055 0.00115 0.97700 0.0
O10 O 0.99057 0.03217 0.03118 0.0
H11 H 0.05781 0.04157 0.98804 0.0
H12 H 0.04900 0.06624 0.00237 0.0
O13 O 0.04939 0.03446 0.03827 0.0
C14 C 0.04091 0.01600 0.02193 0.0
H15 H 0.99794 0.02299 0.98116 0.0
H16 H 0.00184 0.99896 0.99804 0.0
Si17 Si 0.53131 0.53301 0.51303 0.0
C18 C 0.59099 0.55204 0.55651 0.0
C19 C 0.50920 0.59000 0.46591 0.0
C20 C 0.51076 0.56711 0.47945 0.0
C21 C 0.53155 0.56366 0.49475 0.0
C22 C 0.55118 0.58332 0.49506 0.0
C23 C 0.55003 0.60582 0.48108 0.0
C24 C 0.52906 0.60921 0.46688 0.0
C25 C 0.50747 0.46208 0.48156 0.0
C26 C 0.50905 0.48336 0.49611 0.0
C27 C 0.52837 0.50286 0.49480 0.0
C28 C 0.54665 0.50083 0.47833 0.0
C29 C 0.54559 0.47982 0.46375 0.0
C30 C 0.52623 0.46043 0.46523 0.0
H31 H 0.62759 0.53615 0.55786 0.0
C32 C 0.46090 0.55786 0.53923 0.0
C33 C 0.45621 0.53779 0.55446 0.0
C34 C 0.47386 0.51652 0.55780 0.0
C35 C 0.49639 0.51538 0.54598 0.0
C36 C 0.50186 0.53519 0.53048 0.0
H37 H 0.52820 0.62455 0.45789 0.0
C38 C 0.48354 0.55612 0.52739 0.0
H39 H 0.49789 0.55382 0.47844 0.0
H40 H 0.52552 0.44624 0.45546 0.0
H41 H 0.44106 0.53868 0.56248 0.0
C42 C 0.61133 0.53487 0.55090 0.0
H43 H 0.56525 0.58138 0.50471 0.0
H44 H 0.49684 0.48451 0.50696 0.0
H45 H 0.55972 0.51390 0.47722 0.0
C46 C 0.60765 0.51548 0.53474 0.0
C47 C 0.58356 0.51447 0.52388 0.0
C48 C 0.56240 0.53186 0.52921 0.0
C49 C 0.56699 0.55008 0.54566 0.0
H50 H 0.50826 0.50101 0.54840 0.0
H51 H 0.48661 0.56948 0.51700 0.0
H52 H 0.58136 0.50203 0.51282 0.0
H53 H 0.55336 0.56162 0.54968 0.0
C54 C 0.88132 0.42020 0.70122 0.0
C55 C 0.89423 0.39237 0.69632 0.0
C56 C 0.92228 0.38602 0.70466 0.0
C57 C 0.93550 0.35830 0.69984 0.0
C58 C 0.96362 0.35218 0.70822 0.0
C59 C 0.97844 0.37379 0.72135 0.0
C60 C 0.96520 0.40144 0.72623 0.0
C61 C 0.93713 0.40755 0.71786 0.0
C62 C 0.01426 0.33856 0.72651 0.0
C63 C 0.04060 0.33663 0.73880 0.0
C64 C 0.06598 0.34489 0.72765 0.0
C65 C 0.09134 0.34802 0.74113 0.0
C66 C 0.09206 0.33970 0.76505 0.0
C67 C 0.06713 0.32894 0.77566 0.0
C68 C 0.04135 0.32745 0.76252 0.0
C69 C 0.01590 0.31889 0.77354 0.0
C70 C 0.06546 0.35220 0.70350 0.0
C71 C 0.11748 0.34312 0.77847 0.0
C72 C 0.11597 0.35979 0.73085 0.0
C73 C 0.14367 0.40069 0.73187 0.0
C74 C 0.16138 0.38453 0.71671 0.0
C75 C 0.18791 0.39637 0.71007 0.0
C76 C 0.19669 0.42435 0.71862 0.0
C77 C 0.17885 0.44061 0.73365 0.0
C78 C 0.15232 0.42877 0.74028 0.0
C79 C 0.22335 0.43597 0.71210 0.0
C80 C 0.24112 0.41953 0.69714 0.0
C81 C 0.06744 0.32118 0.79965 0.0
C82 C 0.07538 0.28173 0.82370 0.0
C83 C 0.06855 0.30124 0.84203 0.0
C84 C 0.06285 0.28956 0.86448 0.0
C85 C 0.06393 0.25840 0.86850 0.0
C86 C 0.07083 0.23892 0.85016 0.0
C87 C 0.07656 0.25060 0.82774 0.0
C88 C 0.05800 0.24658 0.89084 0.0
C89 C 0.05891 0.21538 0.89462 0.0
O90 O 0.00582 0.36788 0.72982 0.0
O91 O 0.07968 0.29301 0.80149 0.0
O92 O 0.11812 0.38869 0.73891 0.0
H93 H 0.89256 0.43597 0.71100 0.0
H94 H 0.88305 0.37654 0.68653 0.0
H95 H 0.92450 0.34235 0.69007 0.0
H96 H 0.97344 0.33168 0.70470 0.0
H97 H 0.97619 0.41736 0.73604 0.0
H98 H 0.92732 0.42803 0.72143 0.0
H99 H 0.01681 0.33424 0.70874 0.0
H100 H 0.99990 0.32389 0.73385 0.0
H101 H 0.01939 0.31812 0.79166 0.0
H102 H 0.00973 0.29782 0.76771 0.0
H103 H 0.99990 0.33451 0.76940 0.0
H104 H 0.04453 0.35762 0.69808 0.0
H105 H 0.07268 0.33379 0.69410 0.0
H106 H 0.07880 0.37032 0.70035 0.0
H107 H 0.11378 0.33733 0.79591 0.0
H108 H 0.12389 0.36538 0.77744 0.0
H109 H 0.13356 0.32935 0.77190 0.0
H110 H 0.13396 0.34726 0.73622 0.0
H111 H 0.11388 0.35984 0.71260 0.0
H112 H 0.15489 0.36377 0.71048 0.0
H113 H 0.20109 0.38441 0.69888 0.0
H114 H 0.18532 0.46137 0.73990 0.0
H115 H 0.13912 0.44071 0.75149 0.0
H116 H 0.22995 0.45669 0.71836 0.0
H117 H 0.23446 0.39882 0.69091 0.0
H118 H 0.07932 0.33639 0.80949 0.0
H119 H 0.04642 0.32056 0.80556 0.0
H120 H 0.06755 0.32428 0.83894 0.0
H121 H 0.05773 0.30394 0.87808 0.0
H122 H 0.07160 0.21586 0.85319 0.0
H123 H 0.08151 0.23622 0.81410 0.0
H124 H 0.05291 0.26086 0.90452 0.0
H125 H 0.06400 0.20118 0.88089 0.0
C126 C 0.66574 0.88071 0.31888 0.0
C127 C 0.68855 0.89750 0.32829 0.0
C128 C 0.69883 0.92233 0.31569 0.0
C129 C 0.72169 0.93928 0.32486 0.0
C130 C 0.73188 0.96405 0.31209 0.0
C131 C 0.71922 0.97176 0.29020 0.0
C132 C 0.69633 0.95488 0.28109 0.0
C133 C 0.68615 0.93014 0.29383 0.0
C134 C 0.74841 0.01280 0.29031 0.0
C135 C 0.75239 0.03789 0.27575 0.0
C136 C 0.77280 0.03680 0.25796 0.0
C137 C 0.77311 0.05979 0.24090 0.0
C138 C 0.75536 0.08528 0.24314 0.0
C139 C 0.73672 0.08743 0.26218 0.0
C140 C 0.73521 0.06366 0.27849 0.0
C141 C 0.71502 0.06476 0.29651 0.0
C142 C 0.79126 0.01174 0.25621 0.0
C143 C 0.75564 0.10809 0.22589 0.0
C144 C 0.79087 0.05724 0.22141 0.0
C145 C 0.78818 0.05093 0.18234 0.0
C146 C 0.81804 0.05517 0.18328 0.0
C147 C 0.83353 0.05673 0.16236 0.0
C148 C 0.81912 0.05406 0.14055 0.0
C149 C 0.78926 0.04959 0.13963 0.0
C150 C 0.77378 0.04803 0.16055 0.0
C151 C 0.83466 0.05591 0.11968 0.0
C152 C 0.86449 0.06050 0.12073 0.0
C153 C 0.71847 0.11249 0.26432 0.0
C154 C 0.71728 0.15796 0.28057 0.0
C155 C 0.68908 0.16026 0.27139 0.0
C156 C 0.67058 0.18296 0.27925 0.0
C157 C 0.68031 0.20323 0.29632 0.0
C158 C 0.70854 0.20093 0.30544 0.0
C159 C 0.72705 0.17827 0.29755 0.0
C160 C 0.66183 0.22578 0.30440 0.0
C161 C 0.67171 0.24577 0.32161 0.0
O162 O 0.72885 0.99612 0.27772 0.0
O163 O 0.73499 0.13497 0.27368 0.0
O164 O 0.77292 0.05031 0.20277 0.0
H165 H 0.65655 0.88673 0.30265 0.0
H166 H 0.69780 0.89155 0.34451 0.0
H167 H 0.73107 0.93350 0.34106 0.0
H168 H 0.74877 0.97666 0.31885 0.0
H169 H 0.68692 0.96071 0.26491 0.0
H170 H 0.66924 0.91760 0.28708 0.0
H171 H 0.76757 0.00010 0.29302 0.0
H172 H 0.73987 0.01936 0.30625 0.0
H173 H 0.70091 0.08269 0.29338 0.0
H174 H 0.72556 0.06752 0.31264 0.0
H175 H 0.70359 0.04482 0.29678 0.0
H176 H 0.78259 0.99356 0.26514 0.0
H177 H 0.81118 0.01682 0.26373 0.0
H178 H 0.79389 0.00635 0.23864 0.0
H179 H 0.74031 0.12439 0.22969 0.0
H180 H 0.75092 0.09887 0.20956 0.0
H181 H 0.77591 0.11773 0.22556 0.0
H182 H 0.80091 0.07759 0.21822 0.0
H183 H 0.80615 0.04030 0.22420 0.0
H184 H 0.82866 0.05726 0.19945 0.0
H185 H 0.85564 0.05993 0.16301 0.0
H186 H 0.77862 0.04751 0.12348 0.0
H187 H 0.75165 0.04485 0.15992 0.0
H188 H 0.82410 0.05392 0.10347 0.0
H189 H 0.87499 0.06247 0.13695 0.0
H190 H 0.70981 0.11915 0.24806 0.0
H191 H 0.70203 0.10725 0.27576 0.0
H192 H 0.68188 0.14508 0.25889 0.0
H193 H 0.64966 0.18470 0.27252 0.0
H194 H 0.71569 0.21596 0.31808 0.0
H195 H 0.74790 0.17642 0.30438 0.0
H196 H 0.64090 0.22766 0.29771 0.0
H197 H 0.69264 0.24382 0.32826 0.0
C198 C 0.82862 0.67028 0.69691 0.0
C199 C 0.84207 0.65739 0.71700 0.0
C200 C 0.87000 0.66610 0.72357 0.0
C201 C 0.88375 0.65333 0.74359 0.0
C202 C 0.91174 0.66214 0.74999 0.0
C203 C 0.92590 0.68363 0.73633 0.0
C204 C 0.91212 0.69644 0.71637 0.0
C205 C 0.88418 0.68765 0.70998 0.0
C206 C 0.96211 0.68135 0.76418 0.0
C207 C 0.98815 0.69603 0.76825 0.0
C208 C 0.01370 0.68408 0.75940 0.0
C209 C 0.03866 0.70147 0.75988 0.0
C210 C 0.03889 0.72916 0.77147 0.0
C211 C 0.01384 0.73982 0.78211 0.0
C212 C 0.98842 0.72325 0.78046 0.0
C213 C 0.96281 0.73495 0.78951 0.0
C214 C 0.01370 0.65588 0.74852 0.0
C215 C 0.06391 0.74654 0.77171 0.0
C216 C 0.06338 0.69146 0.74854 0.0
C217 C 0.09045 0.70254 0.71746 0.0
C218 C 0.10879 0.67973 0.72638 0.0
C219 C 0.13532 0.67426 0.71579 0.0
C220 C 0.14346 0.69161 0.69630 0.0
C221 C 0.12499 0.71429 0.68727 0.0
C222 C 0.09847 0.71976 0.69786 0.0
C223 C 0.17012 0.68624 0.68589 0.0
C224 C 0.18851 0.66361 0.69508 0.0
C225 C 0.01365 0.76772 0.79330 0.0
C226 C 0.02154 0.78798 0.82863 0.0
C227 C 0.01395 0.81550 0.81780 0.0
C228 C 0.00784 0.84055 0.83166 0.0
C229 C 0.00928 0.83798 0.85631 0.0
C230 C 0.01694 0.81046 0.86710 0.0
C231 C 0.02308 0.78544 0.85325 0.0
C232 C 0.00294 0.86288 0.87025 0.0
C233 C 0.00422 0.86000 0.89487 0.0
O234 O 0.95315 0.69259 0.74259 0.0
O235 O 0.02626 0.76312 0.81513 0.0
O236 O 0.06489 0.70848 0.72826 0.0
H237 H 0.83938 0.68621 0.68699 0.0
H238 H 0.83138 0.64145 0.72697 0.0
H239 H 0.87324 0.63738 0.75365 0.0
H240 H 0.92195 0.65276 0.76481 0.0
H241 H 0.92263 0.71244 0.70634 0.0
H242 H 0.87398 0.69709 0.69519 0.0
H243 H 0.96518 0.65822 0.76357 0.0
H244 H 0.94746 0.68695 0.77705 0.0
H245 H 0.96585 0.75724 0.79406 0.0
H246 H 0.95711 0.72262 0.80432 0.0
H247 H 0.94655 0.73367 0.77675 0.0
H248 H 0.99283 0.65054 0.74329 0.0
H249 H 0.02142 0.63971 0.76048 0.0
H250 H 0.02685 0.65630 0.73396 0.0
H251 H 0.05984 0.76681 0.77997 0.0
H252 H 0.07001 0.75064 0.75448 0.0
H253 H 0.08036 0.73498 0.78070 0.0
H254 H 0.08142 0.69503 0.75920 0.0
H255 H 0.06177 0.66883 0.74450 0.0
H256 H 0.10277 0.66698 0.74088 0.0
H257 H 0.14896 0.65741 0.72240 0.0
H258 H 0.13099 0.72707 0.67278 0.0
H259 H 0.08480 0.73663 0.69127 0.0
H260 H 0.17624 0.69901 0.67144 0.0
H261 H 0.18232 0.65087 0.70952 0.0
H262 H 0.02504 0.78357 0.78381 0.0
H263 H 0.99249 0.77498 0.79515 0.0
H264 H 0.01269 0.81725 0.79956 0.0
H265 H 0.00216 0.86096 0.82370 0.0
H266 H 0.01797 0.80862 0.88536 0.0
H267 H 0.02859 0.76500 0.86120 0.0
H268 H 0.99729 0.88335 0.86239 0.0
H269 H 0.00987 0.83949 0.90267 0.0
C270 C 0.38597 0.81837 0.31195 0.0
C271 C 0.35947 0.83195 0.31715 0.0
C272 C 0.35328 0.86121 0.30896 0.0
C273 C 0.32690 0.87512 0.31408 0.0
C274 C 0.32093 0.90444 0.30585 0.0
C275 C 0.34135 0.91977 0.29256 0.0
C276 C 0.36767 0.90584 0.28739 0.0
C277 C 0.37364 0.87657 0.29561 0.0
C278 C 0.30761 0.95724 0.28784 0.0
C279 C 0.30554 0.98467 0.27566 0.0
C280 C 0.31381 0.01119 0.28683 0.0
C281 C 0.31656 0.03758 0.27340 0.0
C282 C 0.30801 0.03823 0.24955 0.0
C283 C 0.29736 0.01218 0.23895 0.0
C284 C 0.29617 0.98535 0.25202 0.0
C285 C 0.28761 0.95876 0.24100 0.0
C286 C 0.32141 0.01076 0.31091 0.0
C287 C 0.31104 0.06468 0.23618 0.0
C288 C 0.32817 0.06330 0.28366 0.0
C289 C 0.36742 0.09208 0.28236 0.0
C290 C 0.35237 0.11069 0.29773 0.0
C291 C 0.36396 0.13839 0.30434 0.0
C292 C 0.39058 0.14741 0.29557 0.0
C293 C 0.40573 0.12867 0.28033 0.0
C294 C 0.39413 0.10098 0.27372 0.0
C295 C 0.40196 0.17524 0.30207 0.0
C296 C 0.38664 0.19391 0.31724 0.0
C297 C 0.28933 0.01241 0.21503 0.0
C298 C 0.25099 0.02068 0.19136 0.0
C299 C 0.26920 0.01340 0.17283 0.0
C300 C 0.25744 0.00737 0.15047 0.0
C301 C 0.22750 0.00856 0.14673 0.0
C302 C 0.20932 0.01593 0.16527 0.0
C303 C 0.22108 0.02200 0.18761 0.0
C304 C 0.21561 0.00229 0.12448 0.0
C305 C 0.18564 0.00332 0.12098 0.0
O306 O 0.33557 0.94832 0.28424 0.0
O307 O 0.26235 0.02526 0.21349 0.0
O308 O 0.35566 0.06541 0.27534 0.0
H309 H 0.40087 0.83000 0.30206 0.0
H310 H 0.34452 0.82039 0.32704 0.0
H311 H 0.31183 0.86374 0.32395 0.0
H312 H 0.30141 0.91477 0.30958 0.0
H313 H 0.38271 0.91721 0.27747 0.0
H314 H 0.39313 0.86625 0.29182 0.0
H315 H 0.30391 0.96001 0.30567 0.0
H316 H 0.29332 0.94193 0.28059 0.0
H317 H 0.28644 0.96231 0.22289 0.0
H318 H 0.26756 0.95242 0.24700 0.0
H319 H 0.30262 0.94188 0.24493 0.0
H320 H 0.32666 0.98892 0.31621 0.0
H321 H 0.30402 0.01839 0.32050 0.0
H322 H 0.33888 0.02464 0.31394 0.0
H323 H 0.30505 0.06074 0.21878 0.0
H324 H 0.33240 0.07130 0.23703 0.0
H325 H 0.29806 0.08154 0.24293 0.0
H326 H 0.31610 0.08209 0.27845 0.0
H327 H 0.32866 0.06122 0.30190 0.0
H328 H 0.33261 0.10402 0.30413 0.0
H329 H 0.35283 0.15224 0.31569 0.0
H330 H 0.42548 0.13532 0.27391 0.0
H331 H 0.40525 0.08710 0.26236 0.0
H332 H 0.42167 0.18203 0.29564 0.0
H333 H 0.36694 0.18707 0.32364 0.0
H334 H 0.30370 0.02470 0.20510 0.0
H335 H 0.28853 0.99044 0.20906 0.0
H336 H 0.29134 0.01230 0.17571 0.0
H337 H 0.27087 0.00191 0.13671 0.0
H338 H 0.18716 0.01679 0.16246 0.0
H339 H 0.20765 0.02727 0.20140 0.0
H340 H 0.22894 0.99687 0.11065 0.0
H341 H 0.17239 0.00875 0.13486 0.0
C342 C 0.67843 0.51294 0.56849 0.0
C343 C 0.68187 0.48335 0.57695 0.0
C344 C 0.66203 0.46130 0.57028 0.0
C345 C 0.63873 0.46886 0.55517 0.0
C346 C 0.63528 0.49845 0.54672 0.0
C347 C 0.65513 0.52050 0.55337 0.0
C348 C 0.70511 0.47581 0.59212 0.0
C349 C 0.72834 0.46826 0.60731 0.0
C350 C 0.75153 0.46071 0.62253 0.0
C351 C 0.77469 0.45315 0.63779 0.0
C352 C 0.79783 0.44560 0.65306 0.0
C353 C 0.80093 0.41611 0.66183 0.0
C354 C 0.82400 0.40858 0.67718 0.0
C355 C 0.84398 0.43053 0.68375 0.0
C356 C 0.84090 0.46001 0.67496 0.0
C357 C 0.81782 0.46754 0.65961 0.0
H358 H 0.69312 0.52926 0.57341 0.0
H359 H 0.66458 0.43939 0.57654 0.0
H360 H 0.62405 0.45254 0.55024 0.0
H361 H 0.65259 0.54240 0.54710 0.0
H362 H 0.78613 0.39986 0.65697 0.0
H363 H 0.82628 0.38675 0.68368 0.0
H364 H 0.85570 0.47625 0.67981 0.0
H365 H 0.81554 0.48937 0.65311 0.0
C366 C 0.57383 0.45498 0.41731 0.0
C367 C 0.58172 0.42719 0.42758 0.0
C368 C 0.57904 0.42259 0.45192 0.0
C369 C 0.56850 0.44579 0.46599 0.0
C370 C 0.56062 0.47359 0.45573 0.0
C371 C 0.56328 0.47818 0.43138 0.0
C372 C 0.59235 0.40402 0.41352 0.0
C373 C 0.60301 0.38085 0.39947 0.0
C374 C 0.61372 0.35769 0.38545 0.0
C375 C 0.62447 0.33453 0.37143 0.0
C376 C 0.63525 0.31138 0.35743 0.0
C377 C 0.64361 0.28380 0.36781 0.0
C378 C 0.65450 0.26069 0.35382 0.0
C379 C 0.65702 0.26515 0.32946 0.0
C380 C 0.64864 0.29273 0.31907 0.0
C381 C 0.63775 0.31584 0.33306 0.0
H382 H 0.57580 0.45838 0.39929 0.0
H383 H 0.58487 0.40202 0.45952 0.0
H384 H 0.56651 0.44239 0.48401 0.0
H385 H 0.55744 0.49875 0.42378 0.0
H386 H 0.64175 0.28050 0.38585 0.0
H387 H 0.66070 0.24028 0.36151 0.0
H388 H 0.65049 0.29603 0.30103 0.0
H389 H 0.63155 0.33626 0.32537 0.0
C390 C 0.40157 0.56551 0.57849 0.0
C391 C 0.38795 0.59357 0.57513 0.0
C392 C 0.39740 0.61335 0.55755 0.0
C393 C 0.42047 0.60507 0.54335 0.0
C394 C 0.43410 0.57702 0.54671 0.0
C395 C 0.42464 0.55723 0.56428 0.0
C396 C 0.36493 0.60188 0.58938 0.0
C397 C 0.34193 0.61022 0.60364 0.0
C398 C 0.31896 0.61860 0.61792 0.0
C399 C 0.29601 0.62701 0.63223 0.0
C400 C 0.27309 0.63544 0.64654 0.0
C401 C 0.25985 0.66373 0.64342 0.0
C402 C 0.23701 0.67222 0.65779 0.0
C403 C 0.22739 0.65241 0.67528 0.0
C404 C 0.24061 0.62410 0.67838 0.0
C405 C 0.26346 0.61562 0.66401 0.0
H406 H 0.39457 0.55085 0.59149 0.0
H407 H 0.38731 0.63412 0.55506 0.0
H408 H 0.42746 0.61972 0.53034 0.0
H409 H 0.43472 0.53646 0.56676 0.0
H410 H 0.26698 0.67841 0.63048 0.0
H411 H 0.22722 0.69317 0.65549 0.0
H412 H 0.23348 0.60943 0.69132 0.0
H413 H 0.27326 0.59467 0.66631 0.0
C414 C 0.60064 0.67625 0.46467 0.0
C415 C 0.58796 0.68036 0.44222 0.0
C416 C 0.56633 0.66087 0.43438 0.0
C417 C 0.55742 0.63724 0.44899 0.0
C418 C 0.57011 0.63311 0.47144 0.0
C419 C 0.59172 0.65262 0.47928 0.0
C420 C 0.59694 0.70394 0.42758 0.0
C421 C 0.60592 0.72749 0.41292 0.0
C422 C 0.61493 0.75100 0.39823 0.0
C423 C 0.62397 0.77448 0.38352 0.0
C424 C 0.63302 0.79794 0.36880 0.0
C425 C 0.62066 0.80168 0.34619 0.0
C426 C 0.62979 0.82506 0.33143 0.0
C427 C 0.65127 0.84471 0.33928 0.0
C428 C 0.66361 0.84099 0.36189 0.0
C429 C 0.65448 0.81760 0.37665 0.0
H430 H 0.61663 0.69069 0.47048 0.0
H431 H 0.55694 0.66393 0.41776 0.0
H432 H 0.54141 0.62281 0.44319 0.0
H433 H 0.60111 0.64957 0.49591 0.0
H434 H 0.60476 0.78712 0.34038 0.0
H435 H 0.62065 0.82781 0.31469 0.0
H436 H 0.67950 0.85555 0.36770 0.0
H437 H 0.66363 0.81484 0.39339 0.0
C438 C 0.46388 0.42081 0.43253 0.0
C439 C 0.46791 0.39053 0.43905 0.0
C440 C 0.48157 0.38298 0.46061 0.0
C441 C 0.49122 0.40573 0.47564 0.0
C442 C 0.48721 0.43601 0.46911 0.0
C443 C 0.47353 0.44356 0.44756 0.0
C444 C 0.45833 0.36778 0.42398 0.0
C445 C 0.44878 0.34502 0.40892 0.0
C446 C 0.43929 0.32225 0.39384 0.0
C447 C 0.42984 0.29947 0.37876 0.0
C448 C 0.42042 0.27668 0.36367 0.0
C449 C 0.42493 0.24641 0.37004 0.0
C450 C 0.41562 0.22362 0.35492 0.0
C451 C 0.40178 0.23109 0.33342 0.0
C452 C 0.39724 0.26136 0.32706 0.0
C453 C 0.40656 0.28415 0.34218 0.0
H454 H 0.45375 0.42640 0.41658 0.0
H455 H 0.48453 0.36056 0.46543 0.0
H456 H 0.50134 0.40014 0.49159 0.0
H457 H 0.47055 0.46598 0.44274 0.0
H458 H 0.43519 0.24088 0.38596 0.0
H459 H 0.41898 0.20122 0.35963 0.0
H460 H 0.38698 0.26689 0.31115 0.0
H461 H 0.40321 0.30656 0.33747 0.0
C462 C 0.42761 0.52019 0.59219 0.0
C463 C 0.42026 0.48975 0.59386 0.0
C464 C 0.43570 0.46818 0.58128 0.0
C465 C 0.45848 0.47705 0.56700 0.0
C466 C 0.46583 0.50748 0.56532 0.0
C467 C 0.45039 0.52906 0.57791 0.0
C468 C 0.39742 0.48089 0.60808 0.0
C469 C 0.37457 0.47202 0.62228 0.0
C470 C 0.35168 0.46314 0.63644 0.0
C471 C 0.32877 0.45424 0.65057 0.0
C472 C 0.30584 0.44535 0.66467 0.0
C473 C 0.29821 0.41496 0.66599 0.0
C474 C 0.27521 0.40608 0.68001 0.0
C475 C 0.25985 0.42757 0.69274 0.0
C476 C 0.26751 0.45796 0.69145 0.0
C477 C 0.29050 0.46684 0.67741 0.0
H478 H 0.41620 0.53616 0.60151 0.0
H479 H 0.43026 0.44564 0.58253 0.0
H480 H 0.46991 0.46108 0.55769 0.0
H481 H 0.45584 0.55159 0.57667 0.0
H482 H 0.30957 0.39905 0.65655 0.0
H483 H 0.26955 0.38359 0.68097 0.0
H484 H 0.25615 0.47387 0.70088 0.0
H485 H 0.29617 0.48934 0.67645 0.0
C486 C 0.46717 0.63683 0.44811 0.0
C487 C 0.47552 0.63871 0.42453 0.0
C488 C 0.49598 0.61838 0.41597 0.0
C489 C 0.50812 0.59620 0.43099 0.0
C490 C 0.49979 0.59434 0.45456 0.0
C491 C 0.47930 0.61465 0.46312 0.0
C492 C 0.46345 0.66094 0.40953 0.0
C493 C 0.45141 0.68320 0.39453 0.0
C494 C 0.43941 0.70547 0.37952 0.0
C495 C 0.42746 0.72778 0.36452 0.0
C496 C 0.41554 0.75010 0.34952 0.0
C497 C 0.42431 0.75226 0.32607 0.0
C498 C 0.41247 0.77465 0.31109 0.0
C499 C 0.39186 0.79488 0.31956 0.0
C500 C 0.38307 0.79270 0.34301 0.0
C501 C 0.39491 0.77031 0.35799 0.0
H502 H 0.45200 0.65186 0.45444 0.0
H503 H 0.50215 0.61976 0.39851 0.0
H504 H 0.52327 0.58116 0.42464 0.0
H505 H 0.47312 0.61326 0.48058 0.0
H506 H 0.43958 0.73729 0.31980 0.0
H507 H 0.41898 0.77626 0.29373 0.0
H508 H 0.36780 0.80766 0.34927 0.0
H509 H 0.38841 0.76870 0.37535 0.0
C510 C 0.63411 0.55663 0.59604 0.0
C511 C 0.64197 0.58692 0.59432 0.0
C512 C 0.62677 0.60647 0.57888 0.0
C513 C 0.60374 0.59573 0.56514 0.0
C514 C 0.59589 0.56544 0.56685 0.0
C515 C 0.61107 0.54588 0.58230 0.0
C516 C 0.66506 0.59764 0.60802 0.0
C517 C 0.68817 0.60837 0.62168 0.0
C518 C 0.71131 0.61911 0.63531 0.0
C519 C 0.73448 0.62985 0.64891 0.0
C520 C 0.75766 0.64059 0.66249 0.0
C521 C 0.76580 0.67077 0.66043 0.0
C522 C 0.78905 0.68148 0.67393 0.0
C523 C 0.80416 0.66203 0.68950 0.0
C524 C 0.79601 0.63186 0.69158 0.0
C525 C 0.77276 0.62114 0.67807 0.0
H526 H 0.64534 0.54215 0.60749 0.0
H527 H 0.63259 0.62890 0.57762 0.0
H528 H 0.59249 0.61021 0.55371 0.0
H529 H 0.60525 0.52346 0.58357 0.0
H530 H 0.75462 0.68517 0.64889 0.0
H531 H 0.79509 0.70382 0.67239 0.0
H532 H 0.80718 0.61747 0.70312 0.0
H533 H 0.76672 0.59881 0.67961 0.0
H534 H 0.97282 0.99295 0.06526 0.0
H535 H 0.93625 0.99990 0.08717 0.0
H536 H 0.92959 0.07757 0.06622 0.0
H537 H 0.96494 0.07136 0.04437 0.0
H538 H 0.90341 0.02768 0.10296 0.0
H539 H 0.89691 0.08012 0.08683 0.0
C540 C 0.97230 0.03130 0.05242 0.0
C541 C 0.96396 0.01016 0.06534 0.0
C542 C 0.94228 0.01412 0.07867 0.0
C543 C 0.92976 0.03922 0.07951 0.0
C544 C 0.93839 0.06033 0.06617 0.0
C545 C 0.95924 0.05663 0.05310 0.0
C546 C 0.90749 0.04283 0.09395 0.0
C547 C 0.89271 0.06485 0.09563 0.0
H548 H 0.02567 0.07524 0.92324 0.0
H549 H 0.03309 0.11584 0.90369 0.0
H550 H 0.04663 0.15568 0.95907 0.0
H551 H 0.04002 0.11596 0.97830 0.0
H552 H 0.04049 0.16414 0.90159 0.0
H553 H 0.05275 0.19065 0.93919 0.0
C554 C 0.03247 0.09141 0.95264 0.0
C555 C 0.03008 0.09157 0.93057 0.0
C556 C 0.03418 0.11597 0.91890 0.0
C557 C 0.03972 0.14004 0.92933 0.0
C558 C 0.04224 0.13940 0.95169 0.0
C559 C 0.03850 0.11582 0.96310 0.0
C560 C 0.04335 0.16533 0.91666 0.0
C561 C 0.05016 0.18932 0.92410 0.0
H562 H 0.05943 0.98193 0.06675 0.0
H563 H 0.09716 0.96974 0.08719 0.0
H564 H 0.13198 0.03932 0.06793 0.0
H565 H 0.09498 0.05173 0.04829 0.0
H566 H 0.14187 0.97653 0.09823 0.0
H567 H 0.16457 0.02548 0.08713 0.0
C568 C 0.07325 0.01816 0.05576 0.0
C569 C 0.07413 0.99373 0.06705 0.0
C570 C 0.09686 0.98628 0.07906 0.0
C571 C 0.11867 0.00272 0.07910 0.0
C572 C 0.11732 0.02749 0.06766 0.0
C573 C 0.09533 0.03496 0.05613 0.0
C574 C 0.14232 0.99405 0.09146 0.0
C575 C 0.16395 0.00810 0.09407 0.0
H576 H 0.00953 0.00576 0.92862 0.0
H577 H 0.00275 0.96860 0.90554 0.0
H578 H 0.01420 0.91624 0.95543 0.0
H579 H 0.02025 0.95243 0.97822 0.0
H580 H 0.00287 0.92058 0.89815 0.0
H581 H 0.00763 0.88489 0.93259 0.0
C582 C 0.01517 0.98288 0.95572 0.0
C583 C 0.01035 0.98754 0.93414 0.0
C584 C 0.00665 0.96527 0.92029 0.0
C585 C 0.00864 0.93871 0.92791 0.0
C586 C 0.01335 0.93442 0.94986 0.0
C587 C 0.01677 0.95586 0.96342 0.0
C588 C 0.00520 0.91587 0.91291 0.0
C589 C 0.00502 0.88968 0.91788 0.0
