data_{}
_symmetry_space_group_name_H-M    P1
_symmetry_Int_Tables_number       1
_symmetry_cell_setting            triclinic
loop_
_symmetry_equiv_pos_as_xyz
'x, y, z'
_cell_length_a     63.765
_cell_length_b     63.179
_cell_length_c     31.811
_cell_angle_alpha  89.989
_cell_angle_beta   90.154
_cell_angle_gamma  127.926
loop_
_atom_site_label
_atom_site_type_symbol
_atom_site_fract_x
_atom_site_fract_y
_atom_site_fract_z
_atom_type_partial_charge
H0 H 0.98060 0.04034 0.00305 0.0
H1 H 0.00010 0.05251 0.04125 0.0
H2 H 0.01296 0.04149 0.96266 0.0
H3 H 0.04970 0.07591 0.00513 0.0
H4 H 0.04079 0.05441 0.03990 0.0
C5 C 0.99990 0.05219 0.01083 0.0
C6 C 0.01265 0.04051 0.99342 0.0
C7 C 0.04127 0.05708 0.00979 0.0
C8 C 0.85200 0.33433 0.72427 0.0
C9 C 0.83215 0.30905 0.75057 0.0
C10 C 0.84214 0.30247 0.78867 0.0
C11 C 0.82254 0.27721 0.81521 0.0
C12 C 0.83276 0.27076 0.85322 0.0
C13 C 0.86252 0.28955 0.86452 0.0
C14 C 0.88208 0.31482 0.83808 0.0
C15 C 0.87188 0.32126 0.80013 0.0
C16 C 0.85053 0.26061 0.92801 0.0
C17 C 0.86528 0.26082 0.96638 0.0
C18 C 0.87703 0.24566 0.96477 0.0
C19 C 0.89608 0.25022 0.99990 0.0
C20 C 0.90075 0.26719 0.03870 0.0
C21 C 0.88689 0.28024 0.04197 0.0
C22 C 0.86917 0.27708 0.00571 0.0
C23 C 0.85708 0.29196 0.00732 0.0
C24 C 0.87152 0.22785 0.92657 0.0
C25 C 0.92003 0.27183 0.07347 0.0
C26 C 0.91080 0.23817 0.99591 0.0
C27 C 0.95586 0.25196 0.98559 0.0
C28 C 0.94268 0.22210 0.99260 0.0
C29 C 0.95993 0.21271 0.99495 0.0
C30 C 0.99032 0.23320 0.99028 0.0
C31 C 0.00347 0.26305 0.98292 0.0
C32 C 0.98622 0.27243 0.98058 0.0
C33 C 0.00750 0.22375 0.99306 0.0
C34 C 0.99421 0.19388 0.00010 0.0
C35 C 0.89188 0.29773 0.08018 0.0
C36 C 0.87405 0.29430 0.15022 0.0
C37 C 0.89582 0.32487 0.15316 0.0
C38 C 0.89447 0.34098 0.18782 0.0
C39 C 0.87130 0.32648 0.21935 0.0
C40 C 0.84959 0.29590 0.21642 0.0
C41 C 0.85097 0.27979 0.18182 0.0
C42 C 0.86970 0.34250 0.25379 0.0
C43 C 0.84632 0.32783 0.28491 0.0
O44 O 0.87265 0.28357 0.90189 0.0
O45 O 0.87463 0.27870 0.11510 0.0
O46 O 0.93906 0.26126 0.98469 0.0
H47 H 0.87399 0.34806 0.73312 0.0
H48 H 0.81015 0.29527 0.74182 0.0
H49 H 0.80052 0.26330 0.80674 0.0
H50 H 0.81830 0.25210 0.87296 0.0
H51 H 0.90410 0.32875 0.84664 0.0
H52 H 0.88635 0.33994 0.78049 0.0
H53 H 0.83972 0.24084 0.91009 0.0
H54 H 0.83606 0.26453 0.93817 0.0
H55 H 0.86632 0.30684 0.03457 0.0
H56 H 0.83465 0.27692 0.01197 0.0
H57 H 0.86143 0.30320 0.97653 0.0
H58 H 0.86500 0.23389 0.89865 0.0
H59 H 0.85497 0.20597 0.93481 0.0
H60 H 0.89022 0.23024 0.91808 0.0
H61 H 0.92196 0.28596 0.09830 0.0
H62 H 0.94033 0.28116 0.05899 0.0
H63 H 0.91217 0.25185 0.08860 0.0
H64 H 0.91031 0.22914 0.02727 0.0
H65 H 0.90148 0.22222 0.97019 0.0
H66 H 0.92018 0.20697 0.99623 0.0
H67 H 0.95022 0.19061 0.00010 0.0
H68 H 0.02596 0.27819 0.97930 0.0
H69 H 0.99591 0.29455 0.97531 0.0
H70 H 0.03002 0.23882 0.98959 0.0
H71 H 0.97170 0.17886 0.00406 0.0
H72 H 0.91368 0.31095 0.09003 0.0
H73 H 0.88568 0.31076 0.07203 0.0
H74 H 0.91281 0.33555 0.12953 0.0
H75 H 0.91053 0.36363 0.19004 0.0
H76 H 0.83246 0.28522 0.23980 0.0
H77 H 0.83482 0.25719 0.17942 0.0
H78 H 0.88572 0.36515 0.25622 0.0
H79 H 0.83034 0.30518 0.28235 0.0
C80 C 0.49305 0.15779 0.28050 0.0
C81 C 0.48295 0.13273 0.25406 0.0
C82 C 0.46474 0.12551 0.21592 0.0
C83 C 0.45441 0.10046 0.18923 0.0
C84 C 0.43614 0.09337 0.15119 0.0
C85 C 0.42823 0.11131 0.13999 0.0
C86 C 0.43863 0.13638 0.16657 0.0
C87 C 0.45687 0.14346 0.20456 0.0
C88 C 0.40564 0.08214 0.07633 0.0
C89 C 0.39074 0.08168 0.03796 0.0
C90 C 0.36040 0.06558 0.03948 0.0
C91 C 0.34633 0.06939 0.00445 0.0
C92 C 0.36200 0.08660 0.96567 0.0
C93 C 0.39198 0.10064 0.96248 0.0
C94 C 0.40638 0.09821 0.99872 0.0
C95 C 0.43674 0.11404 0.99720 0.0
C96 C 0.34457 0.04753 0.07757 0.0
C97 C 0.34779 0.09049 0.93092 0.0
C98 C 0.31667 0.05634 0.00828 0.0
C99 C 0.28702 0.06844 0.01867 0.0
C100 C 0.26453 0.03837 0.01149 0.0
C101 C 0.23549 0.02794 0.00908 0.0
C102 C 0.22899 0.04760 0.01386 0.0
C103 C 0.25149 0.07766 0.02140 0.0
C104 C 0.28053 0.08809 0.02379 0.0
C105 C 0.19994 0.03711 0.01102 0.0
C106 C 0.17758 0.00704 0.00330 0.0
C107 C 0.40796 0.11838 0.92437 0.0
C108 C 0.42214 0.11568 0.85431 0.0
C109 C 0.43664 0.14608 0.85155 0.0
C110 C 0.45747 0.16269 0.81699 0.0
C111 C 0.46378 0.14885 0.78538 0.0
C112 C 0.44920 0.11844 0.78813 0.0
C113 C 0.42835 0.10183 0.82263 0.0
C114 C 0.48476 0.16539 0.75102 0.0
C115 C 0.49106 0.15138 0.71983 0.0
O116 O 0.41062 0.10471 0.10258 0.0
O117 O 0.40272 0.09962 0.88934 0.0
O118 O 0.31549 0.07876 0.01963 0.0
H119 H 0.48703 0.17089 0.27173 0.0
H120 H 0.48891 0.11957 0.26273 0.0
H121 H 0.46025 0.08718 0.19763 0.0
H122 H 0.42849 0.07487 0.13134 0.0
H123 H 0.43282 0.14969 0.15809 0.0
H124 H 0.46454 0.16199 0.22431 0.0
H125 H 0.39290 0.06232 0.09414 0.0
H126 H 0.42523 0.08683 0.06620 0.0
H127 H 0.44520 0.12891 0.97004 0.0
H128 H 0.44162 0.09961 0.99247 0.0
H129 H 0.44582 0.12539 0.02806 0.0
H130 H 0.35855 0.05403 0.10553 0.0
H131 H 0.33517 0.02581 0.06921 0.0
H132 H 0.32824 0.04913 0.08607 0.0
H133 H 0.36285 0.10491 0.90617 0.0
H134 H 0.33820 0.09915 0.94545 0.0
H135 H 0.33177 0.07032 0.91567 0.0
H136 H 0.30629 0.04708 0.97687 0.0
H137 H 0.30701 0.04038 0.03392 0.0
H138 H 0.26940 0.02387 0.00777 0.0
H139 H 0.21880 0.00568 0.00367 0.0
H140 H 0.24665 0.09219 0.02509 0.0
H141 H 0.29725 0.11036 0.02919 0.0
H142 H 0.19500 0.05156 0.01457 0.0
H143 H 0.18258 0.99264 0.99990 0.0
H144 H 0.40150 0.13096 0.91459 0.0
H145 H 0.43004 0.13205 0.93259 0.0
H146 H 0.43209 0.15628 0.87523 0.0
H147 H 0.46829 0.18522 0.81489 0.0
H148 H 0.45392 0.10825 0.76469 0.0
H149 H 0.41766 0.07934 0.82490 0.0
H150 H 0.49562 0.18792 0.74872 0.0
H151 H 0.48016 0.12885 0.72226 0.0
C152 C 0.65378 0.53610 0.72306 0.0
C153 C 0.67841 0.54560 0.74959 0.0
C154 C 0.68607 0.56411 0.78767 0.0
C155 C 0.71070 0.57385 0.81444 0.0
C156 C 0.71823 0.59244 0.85243 0.0
C157 C 0.70115 0.60126 0.86348 0.0
C158 C 0.67651 0.59145 0.83682 0.0
C159 C 0.66898 0.57290 0.79889 0.0
C160 C 0.73023 0.62349 0.92718 0.0
C161 C 0.73121 0.63883 0.96547 0.0
C162 C 0.74792 0.66954 0.96388 0.0
C163 C 0.74474 0.68420 0.99881 0.0
C164 C 0.72750 0.66867 0.03758 0.0
C165 C 0.71281 0.63824 0.04086 0.0
C166 C 0.71464 0.62331 0.00470 0.0
C167 C 0.69820 0.59257 0.00630 0.0
C168 C 0.76597 0.68521 0.92580 0.0
C169 C 0.72426 0.68346 0.07223 0.0
C170 C 0.75847 0.71432 0.99489 0.0
C171 C 0.74784 0.74535 0.98427 0.0
C172 C 0.77777 0.76744 0.99150 0.0
C173 C 0.78894 0.79702 0.99380 0.0
C174 C 0.77015 0.80445 0.98888 0.0
C175 C 0.74022 0.78234 0.98130 0.0
C176 C 0.72906 0.75276 0.97900 0.0
C177 C 0.78137 0.83403 0.99162 0.0
C178 C 0.81130 0.85600 0.99990 0.0
C179 C 0.69505 0.62242 0.07895 0.0
C180 C 0.69714 0.60769 0.14910 0.0
C181 C 0.66718 0.59384 0.15177 0.0
C182 C 0.65034 0.57296 0.18636 0.0
C183 C 0.66350 0.56594 0.21808 0.0
C184 C 0.69348 0.57987 0.21542 0.0
C185 C 0.71032 0.60076 0.18089 0.0
C186 C 0.64672 0.54490 0.25245 0.0
C187 C 0.66005 0.53788 0.28376 0.0
O188 O 0.70819 0.61918 0.90083 0.0
O189 O 0.71340 0.62712 0.11406 0.0
O190 O 0.73680 0.71636 0.98340 0.0
H191 H 0.64132 0.54279 0.73173 0.0
H192 H 0.69093 0.53896 0.74102 0.0
H193 H 0.72334 0.56733 0.80615 0.0
H194 H 0.73642 0.59965 0.87233 0.0
H195 H 0.66384 0.59793 0.84520 0.0
H196 H 0.65077 0.56566 0.77908 0.0
H197 H 0.74987 0.63590 0.90941 0.0
H198 H 0.72497 0.60344 0.93740 0.0
H199 H 0.68349 0.58439 0.03343 0.0
H200 H 0.71198 0.58700 0.01114 0.0
H201 H 0.68688 0.58361 0.97543 0.0
H202 H 0.75916 0.67103 0.89788 0.0
H203 H 0.78734 0.69411 0.93424 0.0
H204 H 0.76502 0.70212 0.91720 0.0
H205 H 0.70974 0.66846 0.09698 0.0
H206 H 0.71623 0.69367 0.05760 0.0
H207 H 0.74437 0.69925 0.08750 0.0
H208 H 0.76781 0.72469 0.02630 0.0
H209 H 0.77427 0.72370 0.96929 0.0
H210 H 0.79164 0.76189 0.99532 0.0
H211 H 0.81110 0.81342 0.99990 0.0
H212 H 0.72634 0.78786 0.97750 0.0
H213 H 0.70689 0.73634 0.97357 0.0
H214 H 0.76756 0.83966 0.98796 0.0
H215 H 0.82506 0.85031 0.00302 0.0
H216 H 0.68311 0.62954 0.08863 0.0
H217 H 0.68100 0.60013 0.07077 0.0
H218 H 0.65748 0.59892 0.12801 0.0
H219 H 0.62813 0.56262 0.18839 0.0
H220 H 0.70316 0.57462 0.23894 0.0
H221 H 0.73248 0.61097 0.17869 0.0
H222 H 0.62451 0.53453 0.25469 0.0
H223 H 0.68226 0.54830 0.28140 0.0
O224 O 0.63967 0.33760 0.45842 0.0
O225 O 0.66884 0.34042 0.41894 0.0
Co226 Co 0.70194 0.37199 0.44277 0.0
C227 C 0.72472 0.34993 0.43429 0.0
C228 C 0.69194 0.40865 0.43127 0.0
Co229 Co 0.70197 0.37202 0.56204 0.0
O230 O 0.72798 0.37115 0.42120 0.0
O231 O 0.70747 0.33766 0.45948 0.0
O232 O 0.70644 0.40300 0.42243 0.0
O233 O 0.67187 0.39437 0.45576 0.0
Co234 Co 0.65848 0.36725 0.50220 0.0
O235 O 0.63970 0.33762 0.54584 0.0
O236 O 0.66889 0.34046 0.58560 0.0
O237 O 0.72802 0.37119 0.58387 0.0
O238 O 0.70749 0.33768 0.54544 0.0
O239 O 0.70648 0.40304 0.58238 0.0
O240 O 0.67190 0.39439 0.54873 0.0
O241 O 0.69151 0.36801 0.50236 0.0
C242 C 0.64595 0.32900 0.43139 0.0
C243 C 0.64599 0.32904 0.57294 0.0
C244 C 0.72475 0.34997 0.57078 0.0
C245 C 0.69198 0.40869 0.57340 0.0
H246 H 0.82939 0.32108 0.67131 0.0
H247 H 0.80017 0.33536 0.70181 0.0
H248 H 0.81501 0.35381 0.61147 0.0
H249 H 0.79392 0.31852 0.63452 0.0
H250 H 0.74917 0.36463 0.60541 0.0
H251 H 0.77839 0.35035 0.57491 0.0
H252 H 0.76356 0.33190 0.66525 0.0
H253 H 0.78464 0.36719 0.64220 0.0
C254 C 0.83126 0.33637 0.67622 0.0
C255 C 0.81324 0.34441 0.67922 0.0
C256 C 0.79814 0.33838 0.63709 0.0
C257 C 0.74730 0.34935 0.60050 0.0
C258 C 0.76533 0.34129 0.59750 0.0
C259 C 0.78042 0.34733 0.63963 0.0
H260 H 0.51031 0.16864 0.34979 0.0
H261 H 0.56204 0.20404 0.32802 0.0
H262 H 0.54286 0.23427 0.36170 0.0
H263 H 0.54562 0.20911 0.38869 0.0
H264 H 0.63065 0.31016 0.37998 0.0
H265 H 0.57893 0.27477 0.40175 0.0
H266 H 0.59810 0.24453 0.36806 0.0
H267 H 0.59535 0.26969 0.34108 0.0
C268 C 0.52049 0.18248 0.33147 0.0
C269 C 0.54918 0.20765 0.32871 0.0
C270 C 0.55602 0.22640 0.36661 0.0
C271 C 0.62047 0.29633 0.39830 0.0
C272 C 0.59178 0.27115 0.40106 0.0
C273 C 0.58495 0.25240 0.36316 0.0
H274 H 0.52059 0.16648 0.66084 0.0
H275 H 0.52575 0.21182 0.64870 0.0
H276 H 0.57967 0.22644 0.66882 0.0
H277 H 0.55632 0.20686 0.62259 0.0
H278 H 0.62045 0.31237 0.61667 0.0
H279 H 0.61529 0.26703 0.62880 0.0
H280 H 0.56137 0.25241 0.60868 0.0
H281 H 0.58472 0.27199 0.65492 0.0
C282 C 0.52586 0.18137 0.67562 0.0
C283 C 0.53739 0.21021 0.66599 0.0
C284 C 0.56444 0.22464 0.64308 0.0
C285 C 0.61518 0.29749 0.60188 0.0
C286 C 0.60365 0.26865 0.61152 0.0
C287 C 0.57660 0.25422 0.63443 0.0
H288 H 0.64446 0.49732 0.29434 0.0
H289 H 0.68871 0.51244 0.33611 0.0
H290 H 0.64084 0.46037 0.37273 0.0
H291 H 0.65564 0.46821 0.31769 0.0
H292 H 0.69697 0.44626 0.43690 0.0
H293 H 0.65273 0.43114 0.39513 0.0
H294 H 0.70059 0.48321 0.35850 0.0
H295 H 0.68580 0.47536 0.41355 0.0
C296 C 0.65113 0.50193 0.32097 0.0
C297 C 0.67067 0.50137 0.34741 0.0
C298 C 0.66101 0.47215 0.35162 0.0
C299 C 0.69030 0.44165 0.41027 0.0
C300 C 0.67077 0.44220 0.38382 0.0
C301 C 0.68042 0.47143 0.37961 0.0
H302 H 0.66606 0.51535 0.71032 0.0
H303 H 0.63618 0.46860 0.66721 0.0
H304 H 0.69220 0.50326 0.63263 0.0
H305 H 0.67946 0.48811 0.68715 0.0
H306 H 0.67545 0.42832 0.56729 0.0
H307 H 0.70533 0.47507 0.61040 0.0
H308 H 0.64931 0.44042 0.64499 0.0
H309 H 0.66205 0.45556 0.59046 0.0
C310 C 0.66037 0.50965 0.68346 0.0
C311 C 0.65186 0.48569 0.65654 0.0
C312 C 0.67492 0.48377 0.65304 0.0
C313 C 0.68114 0.43402 0.59415 0.0
C314 C 0.68965 0.45799 0.62107 0.0
C315 C 0.66659 0.45990 0.62458 0.0
H316 H 0.83974 0.35331 0.29295 0.0
H317 H 0.79354 0.31464 0.33129 0.0
H318 H 0.81934 0.36738 0.37693 0.0
H319 H 0.80635 0.35733 0.32069 0.0
H320 H 0.73879 0.33235 0.44207 0.0
H321 H 0.78498 0.37103 0.40373 0.0
H322 H 0.75919 0.31829 0.35809 0.0
H323 H 0.77217 0.32834 0.41433 0.0
C324 C 0.83412 0.34524 0.31857 0.0
C325 C 0.80890 0.33088 0.34462 0.0
C326 C 0.80185 0.34998 0.35370 0.0
C327 C 0.74441 0.34043 0.41645 0.0
C328 C 0.76962 0.35478 0.39040 0.0
C329 C 0.77668 0.33569 0.38132 0.0
C330 C 0.00725 0.12686 0.00213 0.0
C331 C 0.03393 0.13147 0.00221 0.0
C332 C 0.03428 0.10731 0.00197 0.0
C333 C 0.00794 0.07854 0.00164 0.0
C334 C 0.98125 0.07393 0.00157 0.0
C335 C 0.98091 0.09809 0.00181 0.0
C336 C 0.00689 0.15101 0.00235 0.0
C337 C 0.00650 0.17514 0.00257 0.0
H338 H 0.05344 0.15277 0.00246 0.0
H339 H 0.05403 0.11072 0.00204 0.0
H340 H 0.96175 0.05263 0.00133 0.0
H341 H 0.96115 0.09468 0.00176 0.0
C342 C 0.10251 0.02578 0.00124 0.0
C343 C 0.11502 0.05578 0.00114 0.0
C344 C 0.09706 0.06439 0.00118 0.0
C345 C 0.06660 0.04299 0.00133 0.0
C346 C 0.05409 0.01299 0.00142 0.0
C347 C 0.07205 0.00438 0.00137 0.0
C348 C 0.12045 0.01715 0.00122 0.0
C349 C 0.13837 0.00850 0.00121 0.0
H350 H 0.13756 0.07163 0.00103 0.0
H351 H 0.10631 0.08660 0.00109 0.0
H352 H 0.03155 0.99716 0.00152 0.0
H353 H 0.06279 0.98217 0.00144 0.0
C354 C 0.91056 0.95139 0.00139 0.0
C355 C 0.93176 0.94696 0.00134 0.0
C356 C 0.96149 0.97124 0.00135 0.0
C357 C 0.97001 0.99990 0.00141 0.0
C358 C 0.94881 0.00437 0.00144 0.0
C359 C 0.91909 0.98010 0.00142 0.0
C360 C 0.88082 0.92713 0.00140 0.0
C361 C 0.85109 0.90288 0.00142 0.0
H362 H 0.92545 0.92572 0.00130 0.0
H363 H 0.97719 0.96797 0.00131 0.0
H364 H 0.95513 0.02562 0.00147 0.0
H365 H 0.90338 0.98337 0.00144 0.0
